.subckt X1 w1 w2 w3 w4 D1 D2 D3 D4 S1 S2 S3 S4 L1 L2 D1 S1 D2 S2 D3 S3 D4 S4 S1 w1 S2 w2 S3 w3 S4 w4
R1_36 D3 D3_n36 0.000116616895417 
L1_36 D3_n36 n36 7.19136307828e-10 
R1_18 D3 D3_n18 0.000121237204127 
L1_18 D3_n18 n18 7.36239928481e-10 
R1_54 D3 D3_n54 0.000111626495147 
L1_54 D3_n54 n54 8.39235986836e-10 
R1_53 D3 D3_n53 0.000130107729987 
L1_53 D3_n53 n53 9.07650469448e-10 
R3_28 L2 L2_n28 6.12905700526e-05 
L3_28 L2_n28 n28 2.09989147494e-10 
R3_37 L2 L2_n37 3.54419809375e-05 
L3_37 L2_n37 n37 1.61555449676e-10 
R3_30 L2 L2_n30 6.12905700526e-05 
L3_30 L2_n30 n30 2.09989147494e-10 
R3_45 L2 L2_n45 3.54419809375e-05 
L3_45 L2_n45 n45 1.61555449676e-10 
R4_49 D4 D4_n49 0.000111626495147 
L4_49 D4_n49 n49 8.39235986836e-10 
R4_58 D4 D4_n58 0.000116616895417 
L4_58 D4_n58 n58 7.19136307828e-10 
R4_31 D4 D4_n31 0.000130107729987 
L4_31 D4_n31 n31 9.07650469448e-10 
R4_55 D4 D4_n55 0.000121237204127 
L4_55 D4_n55 n55 7.36239928481e-10 
R6_64 D1 D1_n64 0.000130107729987 
L6_64 D1_n64 n64 9.07650469448e-10 
R6_65 D1 D1_n65 0.000116616895417 
L6_65 D1_n65 n65 7.19136307828e-10 
R6_66 D1 D1_n66 0.000111626495147 
L6_66 D1_n66 n66 8.39235986836e-10 
R6_63 D1 D1_n63 0.000121237204127 
L6_63 D1_n63 n63 7.36239928481e-10 
R8_64 w3 w3_n64 0.000153158358683 
L8_64 w3_n64 n64 1.08920208204e-09 
R8_82 w3 w3_n82 0.000150970200683 
L8_82 w3_n82 n82 9.17779177574e-10 
R8_66 w3 w3_n66 0.000128932283768 
L8_66 w3_n66 n66 9.98988448725e-10 
R8_71 w3 w3_n71 0.000141279770717 
L8_71 w3_n71 n71 8.81693724247e-10 
R9_80 D2 D2_n80 0.000111626495147 
L9_80 D2_n80 n80 8.39235986836e-10 
R9_85 D2 D2_n85 0.000116616895417 
L9_85 D2_n85 n85 7.19136307828e-10 
R9_94 D2 D2_n94 0.000121237204127 
L9_94 D2_n94 n94 7.36239928481e-10 
R9_95 D2 D2_n95 0.000130107729987 
L9_95 D2_n95 n95 9.07650469448e-10 
R11_80 w4 w4_n80 0.000128932283768 
L11_80 w4_n80 n80 9.98988448725e-10 
R11_81 w4 w4_n81 0.000141279770717 
L11_81 w4_n81 n81 8.81693724247e-10 
R11_98 w4 w4_n98 0.000150970200683 
L11_98 w4_n98 n98 9.17779177574e-10 
R11_95 w4 w4_n95 0.000153158358683 
L11_95 w4_n95 n95 1.08920208204e-09 
R12_152 w1 w1_n152 0.00010681314842 
L12_152 w1_n152 n152 5.58432048653e-10 
R12_125 w1 w1_n125 0.000111381605002 
L12_125 w1_n125 n125 5.72895173646e-10 
R12_126 w1 w1_n126 0.000111381605002 
L12_126 w1_n126 n126 5.72895173646e-10 
R12_151 w1 w1_n151 0.00010681314842 
L12_151 w1_n151 n151 5.58432048653e-10 
R13_136 L1 L1_n136 4.07323509641e-05 
L13_136 L1_n136 n136 1.74591672974e-10 
R13_133 L1 L1_n133 4.07323509641e-05 
L13_133 L1_n133 n133 1.74591672974e-10 
R13_134 L1 L1_n134 4.07323509641e-05 
L13_134 L1_n134 n134 1.74591672974e-10 
R13_135 L1 L1_n135 4.07323509641e-05 
L13_135 L1_n135 n135 1.74591672974e-10 
R14_129 w2 w2_n129 0.000111381605002 
L14_129 w2_n129 n129 5.72895173646e-10 
R14_147 w2 w2_n147 0.00010681314842 
L14_147 w2_n147 n147 5.58432048653e-10 
R14_156 w2 w2_n156 0.00010681314842 
L14_156 w2_n156 n156 5.58432048653e-10 
R14_139 w2 w2_n139 0.000111381605002 
L14_139 w2_n139 n139 5.72895173646e-10 
R15_16 n15 n15_n16 0.000283739038279 
L15_16 n15_n16 n16 6.57102264033e-10 
R15_40 n15 n15_n40 0.000120576343839 
L15_40 n15_n40 n40 2.22834174163e-10 
R15_17 n15 n15_n17 0.000293546132862 
L15_17 n15_n17 n17 9.77569001313e-10 
R16_18 n16 n16_n18 0.000128969358701 
L16_18 n16_n18 n18 6.42966798439e-10 
R16_61 n16 n16_n61 0.000780470690478 
L16_61 n16_n61 n61 2.30865219147e-09 
R17_41 n17 n17_n41 1.88343359566e-05 
L17_41 n17_n41 n41 8.00752594567e-11 
R17_18 n17 n17_n18 5.09626664193e-05 
L17_18 n17_n18 n18 2.63842380658e-10 
R17_35 n17 n17_n35 0.000857937856152 
L17_35 n17_n35 n35 3.56974082692e-09 
R18_36 n18 n18_n36 0.000420980204814 
L18_36 n18_n36 n36 2.52197942552e-09 
R18_53 n18 n18_n53 0.000159800292028 
L18_53 n18_n53 n53 1.05671448108e-09 
R19_20 n19 n19_n20 9.64878355813e-06 
L19_20 n19_n20 n20 5.22098250636e-11 
R19_29 n19 n19_n29 0.000358131404111 
L19_29 n19_n29 n29 2.11751002295e-09 
R19_38 n19 n19_n38 0.000143813750794 
L19_38 n19_n38 n38 1.15563007899e-09 
R19_21 n19 n19_n21 0.000420980204814 
L19_21 n19_n21 n21 2.52197942552e-09 
R20_58 n20 n20_n58 3.41635944438e-05 
L20_58 n20_n58 n58 2.0855027903e-10 
R20_30 n20 n20_n30 0.000748206923124 
L20_30 n20_n30 n30 3.02885993273e-09 
R20_22 n20 n20_n22 0.000857937856152 
L20_22 n20_n22 n22 3.56974082692e-09 
R21_43 n21 n21_n43 0.000128969358701 
L21_43 n21_n43 n43 6.42966798439e-10 
R21_22 n21 n21_n22 1.88343359566e-05 
L21_22 n21_n22 n22 8.00752594567e-11 
R21_39 n21 n21_n39 0.000200692553584 
L21_39 n21_n39 n39 1.36757667133e-09 
R22_44 n22 n22_n44 0.000293546132862 
L22_44 n22_n44 n44 9.77569001313e-10 
R22_55 n22 n22_n55 5.09626664193e-05 
L22_55 n22_n55 n55 2.63842380658e-10 
R23_24 n23 n23_n24 0.000295746491193 
L23_24 n23_n24 n24 1.87313424356e-09 
R23_25 n23 n23_n25 4.63573852673e-05 
L23_25 n23_n25 n25 2.49555077281e-10 
R23_37 n23 n23_n37 0.000195522928877 
L23_37 n23_n37 n37 1.17753483122e-09 
R23_54 n23 n23_n54 0.000223303644369 
L23_54 n23_n54 n54 1.61773340839e-09 
R24_26 n24 n24_n26 8.90857434136e-05 
L24_26 n24_n26 n26 3.78944716683e-10 
R24_60 n24 n24_n60 0.000397044638706 
L24_60 n24_n60 n60 2.27392305609e-09 
R25_49 n25 n25_n49 0.000223303644369 
L25_49 n25_n49 n49 1.61773340839e-09 
R25_26 n25 n25_n26 0.000295746491193 
L25_26 n25_n26 n26 1.87313424356e-09 
R25_45 n25 n25_n45 0.000195522928877 
L25_45 n25_n45 n45 1.17753483122e-09 
R26_50 n26 n26_n50 0.000397044638706 
L26_50 n26_n50 n50 2.27392305609e-09 
R27_42 n27 n27_n42 0.000358131404111 
L27_42 n27_n42 n42 2.11751002295e-09 
R27_51 n27 n27_n51 0.000244619452005 
L27_51 n27_n51 n51 1.51860932207e-09 
R27_28 n27 n27_n28 2.3993677256e-05 
L27_28 n27_n28 n28 9.30524981982e-11 
R27_29 n27 n27_n29 7.86738845024e-05 
L27_29 n27_n29 n29 3.47259151544e-10 
R28_35 n28 n28_n35 0.000748206923124 
L28_35 n28_n35 n35 3.02885993273e-09 
R28_37 n28 n28_n37 6.30798624552e-05 
L28_37 n28_n37 n37 2.98898024981e-10 
R28_30 n28 n28_n30 0.000182057901527 
L28_30 n28_n30 n30 5.40974569336e-10 
R29_52 n29 n29_n52 0.000244619452005 
L29_52 n29_n52 n52 1.51860932207e-09 
R29_30 n29 n29_n30 2.3993677256e-05 
L29_30 n29_n30 n30 9.30524981982e-11 
R30_45 n30 n30_n45 6.30798624552e-05 
L30_45 n30_n45 n45 2.98898024981e-10 
R31_32 n31 n31_n32 0.000243511633243 
L31_32 n31_n32 n32 1.69181389962e-09 
R31_49 n31 n31_n49 0.000264698409612 
L31_49 n31_n49 n49 1.93949564787e-09 
R31_55 n31 n31_n55 0.000159800292028 
L31_55 n31_n55 n55 1.05671448108e-09 
R31_33 n31 n31_n33 7.69819954013e-05 
L31_33 n31_n33 n33 4.70714094796e-10 
R32_50 n32 n32_n50 0.000464670909942 
L32_50 n32_n50 n50 2.70399879884e-09 
R32_34 n32 n32_n34 0.000145342402687 
L32_34 n32_n34 n34 6.98104838834e-10 
R33_56 n33 n33_n56 0.000780470690478 
L33_56 n33_n56 n56 2.30865219147e-09 
R33_34 n33 n33_n34 0.00111962832083 
L33_34 n33_n34 n34 3.53249440552e-09 
R35_42 n35 n35_n42 9.64878355813e-06 
L35_42 n35_n42 n42 5.22098250636e-11 
R35_36 n35 n35_n36 3.41635944438e-05 
L35_36 n35_n36 n36 2.0855027903e-10 
R36_37 n36 n36_n37 0.000358131404111 
L36_37 n36_n37 n37 2.11751002295e-09 
R36_54 n36 n36_n54 0.000113601825237 
L36_54 n36_n54 n54 8.85695378171e-10 
R37_45 n37 n37_n45 7.86738845024e-05 
L37_45 n37_n45 n45 3.47259151544e-10 
R38_52 n38 n38_n52 0.000397044638706 
L38_52 n38_n52 n52 2.27392305609e-09 
R38_39 n38 n38_n39 0.000464670909942 
L38_39 n38_n39 n39 2.70399879884e-09 
R39_46 n39 n39_n46 0.000145342402687 
L39_46 n39_n46 n46 6.98104838834e-10 
R40_41 n40 n40_n41 0.000128969358701 
L40_41 n40_n41 n41 6.42966798439e-10 
R40_47 n40 n40_n47 0.000949349213952 
L40_47 n40_n47 n47 2.91350229545e-09 
R41_42 n41 n41_n42 0.000420980204814 
L41_42 n41_n42 n42 2.52197942552e-09 
R41_48 n41 n41_n48 0.000200692553584 
L41_48 n41_n48 n48 1.36757667133e-09 
R42_57 n42 n42_n57 0.000143813750794 
L42_57 n42_n57 n57 1.15563007899e-09 
R43_44 n43 n43_n44 0.000120576343839 
L43_44 n43_n44 n44 2.22834174163e-10 
R43_46 n43 n43_n46 0.000949349213952 
L43_46 n43_n46 n46 2.91350229545e-09 
R44_56 n44 n44_n56 0.000283739038279 
L44_56 n44_n56 n56 6.57102264033e-10 
R45_58 n45 n45_n58 0.000358131404111 
L45_58 n45_n58 n58 2.11751002295e-09 
R47_48 n47 n47_n48 0.000145342402687 
L47_48 n47_n48 n48 6.98104838834e-10 
R48_57 n48 n48_n57 0.000464670909942 
L48_57 n48_n57 n57 2.70399879884e-09 
R49_50 n49 n49_n50 0.000175685406781 
L49_50 n49_n50 n50 1.43924098615e-09 
R49_58 n49 n49_n58 0.000113601825237 
L49_58 n49_n58 n58 8.85695378171e-10 
R51_57 n51 n51_n57 0.000397044638706 
L51_57 n51_n57 n57 2.27392305609e-09 
R51_52 n51 n51_n52 8.90857434136e-05 
L51_52 n51_n52 n52 3.78944716683e-10 
R53_59 n53 n53_n59 0.000243511633243 
L53_59 n53_n59 n59 1.69181389962e-09 
R53_61 n53 n53_n61 7.69819954013e-05 
L53_61 n53_n61 n61 4.70714094796e-10 
R53_54 n53 n53_n54 0.000264698409612 
L53_54 n53_n54 n54 1.93949564787e-09 
R54_60 n54 n54_n60 0.000175685406781 
L54_60 n54_n60 n60 1.43924098615e-09 
R55_56 n55 n55_n56 0.000128969358701 
L55_56 n55_n56 n56 6.42966798439e-10 
R55_58 n55 n55_n58 0.000420980204814 
L55_58 n55_n58 n58 2.52197942552e-09 
R59_60 n59 n59_n60 0.000464670909942 
L59_60 n59_n60 n60 2.70399879884e-09 
R59_62 n59 n59_n62 0.000145342402687 
L59_62 n59_n62 n62 6.98104838834e-10 
R61_62 n61 n61_n62 0.00111962832083 
L61_62 n61_n62 n62 3.53249440552e-09 
R63_64 n63 n63_n64 0.000159800292028 
L63_64 n63_n64 n64 1.05671448108e-09 
R63_104 n63 n63_n104 0.000128969358701 
L63_104 n63_n104 n104 6.42966798439e-10 
R63_86 n63 n63_n86 5.09626664193e-05 
L63_86 n63_n86 n86 2.63842380658e-10 
R63_65 n63 n63_n65 0.000420980204814 
L63_65 n63_n65 n65 2.52197942552e-09 
R64_96 n64 n64_n96 7.69819954013e-05 
L64_96 n64_n96 n96 4.70714094796e-10 
R64_66 n64 n64_n66 0.000264698409612 
L64_66 n64_n66 n66 1.93949564787e-09 
R64_82 n64 n64_n82 0.000243511633243 
L64_82 n64_n82 n82 1.69181389962e-09 
R65_66 n65 n65_n66 0.000113601825237 
L65_66 n65_n66 n66 8.85695378171e-10 
R65_83 n65 n65_n83 0.000358131404111 
L65_83 n65_n83 n83 2.11751002295e-09 
R65_87 n65 n65_n87 3.41635944438e-05 
L65_87 n65_n87 n87 2.0855027903e-10 
R66_71 n66 n66_n71 0.000175685406781 
L66_71 n66_n71 n71 1.43924098615e-09 
R66_72 n66 n66_n72 0.000223303644369 
L66_72 n66_n72 n72 1.61773340839e-09 
R67_88 n67 n67_n88 0.000244619452005 
L67_88 n67_n88 n88 1.51860932207e-09 
R67_68 n67 n67_n68 2.3993677256e-05 
L67_68 n67_n68 n68 9.30524981982e-11 
R67_77 n67 n67_n77 0.000358131404111 
L67_77 n67_n77 n77 2.11751002295e-09 
R67_69 n67 n67_n69 7.86738845024e-05 
L67_69 n67_n69 n69 3.47259151544e-10 
R68_83 n68 n68_n83 6.30798624552e-05 
L68_83 n68_n83 n83 2.98898024981e-10 
R68_70 n68 n68_n70 0.000182057901527 
L68_70 n68_n70 n70 5.40974569336e-10 
R68_87 n68 n68_n87 0.000748206923124 
L68_87 n68_n87 n87 3.02885993273e-09 
R69_89 n69 n69_n89 0.000244619452005 
L69_89 n69_n89 n89 1.51860932207e-09 
R69_91 n69 n69_n91 0.000358131404111 
L69_91 n69_n91 n91 2.11751002295e-09 
R69_70 n69 n69_n70 2.3993677256e-05 
L69_70 n69_n70 n70 9.30524981982e-11 
R70_84 n70 n70_n84 6.30798624552e-05 
L70_84 n70_n84 n84 2.98898024981e-10 
R70_92 n70 n70_n92 0.000748206923124 
L70_92 n70_n92 n92 3.02885993273e-09 
R71_73 n71 n71_n73 0.000397044638706 
L71_73 n71_n73 n73 2.27392305609e-09 
R71_82 n71 n71_n82 0.000464670909942 
L71_82 n71_n82 n82 2.70399879884e-09 
R72_73 n72 n72_n73 0.000295746491193 
L72_73 n72_n73 n73 1.87313424356e-09 
R72_83 n72 n72_n83 0.000195522928877 
L72_83 n72_n83 n83 1.17753483122e-09 
R72_78 n72 n72_n78 4.63573852673e-05 
L72_78 n72_n78 n78 2.49555077281e-10 
R73_79 n73 n73_n79 8.90857434136e-05 
L73_79 n73_n79 n79 3.78944716683e-10 
R74_75 n74 n74_n75 0.000200692553584 
L74_75 n74_n75 n75 1.36757667133e-09 
R74_76 n74 n74_n76 0.000464670909942 
L74_76 n74_n76 n76 2.70399879884e-09 
R74_110 n74 n74_n110 0.000145342402687 
L74_110 n74_n110 n110 6.98104838834e-10 
R75_107 n75 n75_n107 0.000128969358701 
L75_107 n75_n107 n107 6.42966798439e-10 
R75_77 n75 n75_n77 0.000420980204814 
L75_77 n75_n77 n77 2.52197942552e-09 
R75_86 n75 n75_n86 1.88343359566e-05 
L75_86 n75_n86 n86 8.00752594567e-11 
R76_88 n76 n76_n88 0.000397044638706 
L76_88 n76_n88 n88 2.27392305609e-09 
R76_77 n76 n76_n77 0.000143813750794 
L76_77 n76_n77 n77 1.15563007899e-09 
R77_87 n77 n77_n87 9.64878355813e-06 
L77_87 n77_n87 n87 5.22098250636e-11 
R78_80 n78 n78_n80 0.000223303644369 
L78_80 n78_n80 n80 1.61773340839e-09 
R78_84 n78 n78_n84 0.000195522928877 
L78_84 n78_n84 n84 1.17753483122e-09 
R78_79 n78 n78_n79 0.000295746491193 
L78_79 n78_n79 n79 1.87313424356e-09 
R79_81 n79 n79_n81 0.000397044638706 
L79_81 n79_n81 n81 2.27392305609e-09 
R80_81 n80 n80_n81 0.000175685406781 
L80_81 n80_n81 n81 1.43924098615e-09 
R80_85 n80 n80_n85 0.000113601825237 
L80_85 n80_n85 n85 8.85695378171e-10 
R80_95 n80 n80_n95 0.000264698409612 
L80_95 n80_n95 n95 1.93949564787e-09 
R81_98 n81 n81_n98 0.000464670909942 
L81_98 n81_n98 n98 2.70399879884e-09 
R82_97 n82 n82_n97 0.000145342402687 
L82_97 n82_n97 n97 6.98104838834e-10 
R83_84 n83 n83_n84 7.86738845024e-05 
L83_84 n83_n84 n84 3.47259151544e-10 
R84_85 n84 n84_n85 0.000358131404111 
L84_85 n84_n85 n85 2.11751002295e-09 
R85_92 n85 n85_n92 3.41635944438e-05 
L85_92 n85_n92 n92 2.0855027903e-10 
R85_94 n85 n85_n94 0.000420980204814 
L85_94 n85_n94 n94 2.52197942552e-09 
R86_108 n86 n86_n108 0.000293546132862 
L86_108 n86_n108 n108 9.77569001313e-10 
R86_87 n86 n86_n87 0.000857937856152 
L86_87 n86_n87 n87 3.56974082692e-09 
R88_89 n88 n88_n89 8.90857434136e-05 
L88_89 n88_n89 n89 3.78944716683e-10 
R89_90 n89 n89_n90 0.000397044638706 
L89_90 n89_n90 n90 2.27392305609e-09 
R90_106 n90 n90_n106 0.000464670909942 
L90_106 n90_n106 n106 2.70399879884e-09 
R90_91 n90 n90_n91 0.000143813750794 
L90_91 n90_n91 n91 1.15563007899e-09 
R91_99 n91 n91_n99 0.000420980204814 
L91_99 n91_n99 n99 2.52197942552e-09 
R91_92 n91 n91_n92 9.64878355813e-06 
L91_92 n91_n92 n92 5.22098250636e-11 
R92_93 n92 n92_n93 0.000857937856152 
L92_93 n92_n93 n93 3.56974082692e-09 
R93_99 n93 n93_n99 1.88343359566e-05 
L93_99 n93_n99 n99 8.00752594567e-11 
R93_101 n93 n93_n101 0.000293546132862 
L93_101 n93_n101 n101 9.77569001313e-10 
R93_94 n93 n93_n94 5.09626664193e-05 
L93_94 n93_n94 n94 2.63842380658e-10 
R94_102 n94 n94_n102 0.000128969358701 
L94_102 n94_n102 n102 6.42966798439e-10 
R94_95 n94 n94_n95 0.000159800292028 
L94_95 n94_n95 n95 1.05671448108e-09 
R95_98 n95 n95_n98 0.000243511633243 
L95_98 n95_n98 n98 1.69181389962e-09 
R95_103 n95 n95_n103 7.69819954013e-05 
L95_103 n95_n103 n103 4.70714094796e-10 
R96_97 n96 n96_n97 0.00111962832083 
L96_97 n96_n97 n97 3.53249440552e-09 
R96_104 n96 n96_n104 0.000780470690478 
L96_104 n96_n104 n104 2.30865219147e-09 
R98_105 n98 n98_n105 0.000145342402687 
L98_105 n98_n105 n105 6.98104838834e-10 
R99_106 n99 n99_n106 0.000200692553584 
L99_106 n99_n106 n106 1.36757667133e-09 
R99_100 n99 n99_n100 0.000128969358701 
L99_100 n99_n100 n100 6.42966798439e-10 
R100_101 n100 n100_n101 0.000120576343839 
L100_101 n100_n101 n101 2.22834174163e-10 
R100_109 n100 n100_n109 0.000949349213952 
L100_109 n100_n109 n109 2.91350229545e-09 
R101_102 n101 n101_n102 0.000283739038279 
L101_102 n101_n102 n102 6.57102264033e-10 
R102_103 n102 n102_n103 0.000780470690478 
L102_103 n102_n103 n103 2.30865219147e-09 
R103_105 n103 n103_n105 0.00111962832083 
L103_105 n103_n105 n105 3.53249440552e-09 
R104_108 n104 n104_n108 0.000283739038279 
L104_108 n104_n108 n108 6.57102264033e-10 
R106_109 n106 n106_n109 0.000145342402687 
L106_109 n106_n109 n109 6.98104838834e-10 
R107_108 n107 n107_n108 0.000120576343839 
L107_108 n107_n108 n108 2.22834174163e-10 
R107_110 n107 n107_n110 0.000949349213952 
L107_110 n107_n110 n110 2.91350229545e-09 
R111_112 n111 n111_n112 0.000215975200992 
L111_112 n111_n112 n112 8.53315353954e-10 
R111_113 n111 n111_n113 0.000613005365329 
L111_113 n111_n113 n113 1.72363459002e-09 
R112_137 n112 n112_n137 0.000133638543615 
L112_137 n112_n137 n137 4.68858398297e-10 
R112_114 n112 n112_n114 0.000242377797204 
L112_114 n112_n114 n114 1.15566799963e-09 
R113_153 n113 n113_n153 0.000949349213952 
L113_153 n113_n153 n153 2.91350229545e-09 
R113_114 n113 n113_n114 9.34915723129e-05 
L113_114 n113_n114 n114 5.24988662518e-10 
R114_138 n114 n114_n138 5.6454268622e-05 
L114_138 n114_n138 n138 2.80196759949e-10 
R114_154 n114 n114_n154 0.000389027598743 
L114_154 n114_n154 n154 2.01115477656e-09 
R115_116 n115 n115_n116 6.41932435427e-05 
L115_116 n115_n116 n116 4.25383511429e-10 
R115_117 n115 n115_n117 0.000949349213952 
L115_117 n115_n117 n117 2.91350229545e-09 
R115_142 n115 n115_n142 0.00129194158881 
L115_142 n115_n142 n142 4.16234707785e-09 
R116_127 n116 n116_n127 3.8182269676e-05 
L116_127 n116_n127 n127 2.22350045229e-10 
R116_118 n116 n116_n118 0.000389027598743 
L116_118 n116_n118 n118 2.01115477656e-09 
R116_135 n116 n116_n135 0.000544261203435 
L116_135 n116_n135 n135 2.92247595641e-09 
R117_118 n117 n117_n118 9.34915723129e-05 
L117_118 n117_n118 n118 5.24988662518e-10 
R117_143 n117 n117_n143 0.000613005365329 
L117_143 n117_n143 n143 1.72363459002e-09 
R118_128 n118 n118_n128 5.6454268622e-05 
L118_128 n118_n128 n128 2.80196759949e-10 
R118_144 n118 n118_n144 0.000242377797204 
L118_144 n118_n144 n144 1.15566799963e-09 
R119_120 n119 n119_n120 9.34915723129e-05 
L119_120 n119_n120 n120 5.24988662518e-10 
R119_145 n119 n119_n145 5.6454268622e-05 
L119_145 n119_n145 n145 2.80196759949e-10 
R119_152 n119 n119_n152 0.000544261203435 
L119_152 n119_n152 n152 2.92247595641e-09 
R119_121 n119 n119_n121 0.000106458842294 
L119_121 n119_n121 n121 4.18100095278e-10 
R120_122 n120 n120_n122 0.000283739038279 
L120_122 n120_n122 n122 6.57102264033e-10 
R120_155 n120 n120_n155 0.00129194158881 
L120_155 n120_n155 n155 4.16234707785e-09 
R121_122 n121 n121_n122 9.34915723129e-05 
L121_122 n121_n122 n122 5.24988662518e-10 
R121_147 n121 n121_n147 0.000544261203435 
L121_147 n121_n147 n147 2.92247595641e-09 
R121_146 n121 n121_n146 5.6454268622e-05 
L121_146 n121_n146 n146 2.80196759949e-10 
R122_148 n122 n122_n148 0.00129194158881 
L122_148 n122_n148 n148 4.16234707785e-09 
R123_137 n123 n123_n137 0.000215975200992 
L123_137 n123_n137 n137 8.53315353954e-10 
R123_124 n123 n123_n124 0.000133638543615 
L123_124 n123_n124 n124 4.68858398297e-10 
R123_125 n123 n123_n125 0.000242377797204 
L123_125 n123_n125 n125 1.15566799963e-09 
R124_149 n124 n124_n149 0.000215975200992 
L124_149 n124_n149 n149 8.53315353954e-10 
R124_126 n124 n124_n126 0.000242377797204 
L124_126 n124_n126 n126 1.15566799963e-09 
R125_138 n125 n125_n138 9.34915723129e-05 
L125_138 n125_n138 n138 5.24988662518e-10 
R125_126 n125 n125_n126 5.6454268622e-05 
L125_126 n125_n126 n126 2.80196759949e-10 
R125_151 n125 n125_n151 0.000389027598743 
L125_151 n125_n151 n151 2.01115477656e-09 
R126_152 n126 n126_n152 0.000389027598743 
L126_152 n126_n152 n152 2.01115477656e-09 
R126_150 n126 n126_n150 9.34915723129e-05 
L126_150 n126_n150 n150 5.24988662518e-10 
R127_136 n127 n127_n136 0.000544261203435 
L127_136 n127_n136 n136 2.92247595641e-09 
R127_128 n127 n127_n128 0.000389027598743 
L127_128 n127_n128 n128 2.01115477656e-09 
R127_156 n127 n127_n156 6.41932435427e-05 
L127_156 n127_n156 n156 4.25383511429e-10 
R128_139 n128 n128_n139 9.34915723129e-05 
L128_139 n128_n139 n139 5.24988662518e-10 
R128_158 n128 n128_n158 0.000242377797204 
L128_158 n128_n158 n158 1.15566799963e-09 
R129_130 n129 n129_n130 9.34915723129e-05 
L129_130 n129_n130 n130 5.24988662518e-10 
R129_139 n129 n129_n139 5.6454268622e-05 
L129_139 n129_n139 n139 2.80196759949e-10 
R129_147 n129 n129_n147 0.000389027598743 
L129_147 n129_n147 n147 2.01115477656e-09 
R129_131 n129 n129_n131 0.000242377797204 
L129_131 n129_n131 n131 1.15566799963e-09 
R130_148 n130 n130_n148 0.000949349213952 
L130_148 n130_n148 n148 2.91350229545e-09 
R130_132 n130 n130_n132 0.000613005365329 
L130_132 n130_n132 n132 1.72363459002e-09 
R131_132 n131 n131_n132 0.000215975200992 
L131_132 n131_n132 n132 8.53315353954e-10 
R131_140 n131 n131_n140 0.000133638543615 
L131_140 n131_n140 n140 4.68858398297e-10 
R133_154 n133 n133_n154 0.000544261203435 
L133_154 n133_n154 n154 2.92247595641e-09 
R133_135 n133 n133_n135 0.000106458842294 
L133_135 n133_n135 n135 4.18100095278e-10 
R133_134 n133 n133_n134 5.6454268622e-05 
L133_134 n133_n134 n134 2.80196759949e-10 
R133_141 n133 n133_n141 9.34915723129e-05 
L133_141 n133_n141 n141 5.24988662518e-10 
R134_136 n134 n134_n136 0.000106458842294 
L134_136 n134_n136 n136 4.18100095278e-10 
R134_145 n134 n134_n145 9.34915723129e-05 
L134_145 n134_n145 n145 5.24988662518e-10 
R134_157 n134 n134_n157 0.000544261203435 
L134_157 n134_n157 n157 2.92247595641e-09 
R135_136 n135 n135_n136 5.6454268622e-05 
L135_136 n135_n136 n136 2.80196759949e-10 
R135_142 n135 n135_n142 9.34915723129e-05 
L135_142 n135_n142 n142 5.24988662518e-10 
R136_146 n136 n136_n146 9.34915723129e-05 
L136_146 n136_n146 n146 5.24988662518e-10 
R137_138 n137 n137_n138 0.000242377797204 
L137_138 n137_n138 n138 1.15566799963e-09 
R138_157 n138 n138_n157 0.000389027598743 
L138_157 n138_n157 n157 2.01115477656e-09 
R139_156 n139 n139_n156 0.000389027598743 
L139_156 n139_n156 n156 2.01115477656e-09 
R139_140 n139 n139_n140 0.000242377797204 
L139_140 n139_n140 n140 1.15566799963e-09 
R140_158 n140 n140_n158 0.000215975200992 
L140_158 n140_n158 n158 8.53315353954e-10 
R141_153 n141 n141_n153 0.00129194158881 
L141_153 n141_n153 n153 4.16234707785e-09 
R141_142 n141 n141_n142 0.000283739038279 
L141_142 n141_n142 n142 6.57102264033e-10 
R143_144 n143 n143_n144 0.000215975200992 
L143_144 n143_n144 n144 8.53315353954e-10 
R144_158 n144 n144_n158 0.000133638543615 
L144_158 n144_n158 n158 4.68858398297e-10 
R145_146 n145 n145_n146 0.000106458842294 
L145_146 n145_n146 n146 4.18100095278e-10 
R145_151 n145 n145_n151 0.000544261203435 
L145_151 n145_n151 n151 2.92247595641e-09 
R146_156 n146 n146_n156 0.000544261203435 
L146_156 n146_n156 n156 2.92247595641e-09 
R147_148 n147 n147_n148 6.41932435427e-05 
L147_148 n147_n148 n148 4.25383511429e-10 
R147_156 n147 n147_n156 3.8182269676e-05 
L147_156 n147_n156 n156 2.22350045229e-10 
R149_150 n149 n149_n150 0.000613005365329 
L149_150 n149_n150 n150 1.72363459002e-09 
R150_155 n150 n150_n155 0.000949349213952 
L150_155 n150_n155 n155 2.91350229545e-09 
R151_152 n151 n151_n152 3.8182269676e-05 
L151_152 n151_n152 n152 2.22350045229e-10 
R151_157 n151 n151_n157 6.41932435427e-05 
L151_157 n151_n157 n157 4.25383511429e-10 
R152_155 n152 n152_n155 6.41932435427e-05 
L152_155 n152_n155 n155 4.25383511429e-10 
R153_154 n153 n153_n154 6.41932435427e-05 
L153_154 n153_n154 n154 4.25383511429e-10 
R154_157 n154 n154_n157 3.8182269676e-05 
L154_157 n154_n157 n157 2.22350045229e-10 
K_L104_108_L127_156 L104_108 L127_156 0.03352622103497428 
K_L104_108_L143_144 L104_108 L143_144 0.01799409935055476 
K_L104_108_L102_103 L104_108 L102_103 0.02182550245729872 
K_L104_108_L35_42 L104_108 L35_42 0.03880413954034167 
K_L104_108_L65_66 L104_108 L65_66 0.28788132877978245 
K_L104_108_L72_73 L104_108 L72_73 0.08175296290502139 
K_L104_108_L33_56 L104_108 L33_56 0.016485641108898594 
K_L104_108_L91_92 L104_108 L91_92 0.04133271508331635 
K_L104_108_L135_136 L104_108 L135_136 0.029944222712765107 
K_L104_108_L151_157 L104_108 L151_157 0.049734701307143935 
K_L104_108_L131_140 L104_108 L131_140 0.01770574350728536 
K_L104_108_L99_106 L104_108 L99_106 0.03767258551644106 
K_L104_108_L153_154 L104_108 L153_154 0.04140312638087597 
K_L104_108_L41_48 L104_108 L41_48 0.05284819856567097 
K_L104_108_L19_38 L104_108 L19_38 0.04438076291883835 
K_L104_108_L53_59 L104_108 L53_59 0.03453615427150475 
K_L104_108_L30_45 L104_108 L30_45 0.02674836823637621 
K_L104_108_L23_37 L104_108 L23_37 0.03276347001559562 
K_L104_108_L69_70 L104_108 L69_70 0.03901030897452675 
K_L104_108_L31_32 L104_108 L31_32 0.027654120177923187 
K_L104_108_L118_128 L104_108 L118_128 0.023186308809692538 
K_L104_108_L101_102 L104_108 L101_102 0.0164467934469596 
K_L104_108_L100_101 L104_108 L100_101 0.014110681164858859 
K_L104_108_L22_55 L104_108 L22_55 0.023531512466259612 
K_L104_108_L100_109 L104_108 L100_109 0.02320056068164264 
K_L104_108_L29_52 L104_108 L29_52 0.04071308303786072 
K_L104_108_L19_20 L104_108 L19_20 0.031892480208420726 
K_L104_108_L33_34 L104_108 L33_34 0.017213084469255173 
K_L104_108_L23_24 L104_108 L23_24 0.03128852991810748 
K_L104_108_L115_116 L104_108 L115_116 0.030583894565110636 
K_L104_108_L133_134 L104_108 L133_134 0.03327881381424988 
K_L104_108_L151_152 L104_108 L151_152 0.05078861417417663 
K_L104_108_L63_64 L104_108 L63_64 0.3600598238422484 
K_L104_108_L121_122 L104_108 L121_122 0.039191832665285385 
K_L104_108_L119_120 L104_108 L119_120 0.0459265829910614 
K_L104_108_L44_56 L104_108 L44_56 0.012946476332686368 
K_L104_108_L43_46 L104_108 L43_46 0.019660277221617752 
K_L104_108_L43_44 L104_108 L43_44 0.011336181424693642 
K_L104_108_L114_138 L104_108 L114_138 0.03989771241074131 
K_L104_108_L67_68 L104_108 L67_68 0.05143078459265321 
K_L104_108_L119_145 L104_108 L119_145 0.03873878027659897 
K_L104_108_L78_84 L104_108 L78_84 0.06469845722502558 
K_L104_108_L129_139 L104_108 L129_139 0.024817622069073772 
K_L104_108_L136_146 L104_108 L136_146 0.034836248692861185 
K_L104_108_L129_130 L104_108 L129_130 0.028041873113013337 
K_L104_108_L25_26 L104_108 L25_26 0.029954068381984444 
K_L104_108_L27_28 L104_108 L27_28 0.026857047867891157 
K_L104_108_L31_55 L104_108 L31_55 0.02766945161928069 
K_L104_108_L78_79 L104_108 L78_79 0.06414787002109004 
K_L104_108_L17_41 L104_108 L17_41 0.03162960320058138 
K_L104_108_L29_30 L104_108 L29_30 0.02491282444613526 
K_L104_108_L18_53 L104_108 L18_53 0.03692938782201181 
K_L104_108_L76_77 L104_108 L76_77 0.12339198703702023 
K_L104_108_L134_145 L104_108 L134_145 0.03931138135217395 
K_L104_108_L63_86 L104_108 L63_86 0.8400220090262572 
K_L104_108_L28_37 L104_108 L28_37 0.028665372619991445 
K_L104_108_L68_83 L104_108 L68_83 0.0743784209918614 
K_L104_108_L140_158 L104_108 L140_158 0.0191378938758006 
K_L104_108_L147_156 L104_108 L147_156 0.032310355069425735 
K_L104_108_L125_126 L104_108 L125_126 0.050499790283403144 
K_L104_108_L42_57 L104_108 L42_57 0.056773963108816224 
K_L104_108_L66_71 L104_108 L66_71 0.14397708879095114 
K_L104_108_L54_60 L104_108 L54_60 0.03725962559211443 
K_L104_108_L25_45 L104_108 L25_45 0.03092114241958439 
K_L104_108_L113_114 L104_108 L113_114 0.03957116541655597 
K_L104_108_L36_54 L104_108 L36_54 0.0400617599861975 
K_L104_108_L67_88 L104_108 L67_88 0.07276688032454624 
K_L104_108_L133_141 L104_108 L133_141 0.03394459917418754 
K_L104_108_L80_81 L104_108 L80_81 0.06601729764625922 
K_L104_108_L17_18 L104_108 L17_18 0.033064260642351205 
K_L104_108_L80_85 L104_108 L80_85 0.06590446140285951 
K_L104_108_L69_89 L104_108 L69_89 0.05629926145654452 
K_L104_108_L94_95 L104_108 L94_95 0.04149554906432278 
K_L104_108_L49_58 L104_108 L49_58 0.03448420907017654 
K_L104_108_L72_83 L104_108 L72_83 0.08956348128319895 
K_L104_108_L35_36 L104_108 L35_36 0.036875101343452815 
K_L104_108_L49_50 L104_108 L49_50 0.0333019420913121 
K_L104_108_L103_105 L104_108 L103_105 0.0240230906447867 
K_L104_108_L126_150 L104_108 L126_150 0.06382810331319934 
K_L104_108_L117_118 L104_108 L117_118 0.02450452927472372 
K_L104_108_L64_82 L104_108 L64_82 0.1433432339263713 
K_L104_108_L125_138 L104_108 L125_138 0.048906109714051765 
K_L104_108_L65_87 L104_108 L65_87 0.5038628203311618 
K_L104_108_L21_22 L104_108 L21_22 0.021922272289104514 
K_L104_108_L154_157 L104_108 L154_157 0.041678380114578105 
K_L104_108_L95_98 L104_108 L95_98 0.04387538337839128 
K_L104_108_L152_155 L104_108 L152_155 0.061576879378061035 
K_L104_108_L116_127 L104_108 L116_127 0.029536573981873274 
K_L104_108_L147_148 L104_108 L147_148 0.03653894464379765 
K_L104_108_L74_75 L104_108 L74_75 0.22597868256162154 
K_L104_108_L75_86 L104_108 L75_86 0.28801778877049966 
K_L104_108_L27_51 L104_108 L27_51 0.0446941115308817 
K_L104_108_L93_94 L104_108 L93_94 0.03349958899334028 
K_L104_108_L93_99 L104_108 L93_99 0.02624743647333068 
K_L104_108_L90_91 L104_108 L90_91 0.0517426283595677 
K_L104_108_L121_146 L104_108 L121_146 0.03373628013141654 
K_L104_108_L85_92 L104_108 L85_92 0.05533283926316542 
K_L104_108_L128_139 L104_108 L128_139 0.026310692386595568 
K_L104_108_L21_39 L104_108 L21_39 0.03382773949012569 
K_L104_108_L135_142 L104_108 L135_142 0.03093673250614036 
K_L104_108_L20_58 L104_108 L20_58 0.030795531549861362 
K_L104_108_L144_158 L104_108 L144_158 0.0167020934605494 
K_L104_108_L131_132 L104_108 L131_132 0.020202420307492926 
K_L104_108_L70_84 L104_108 L70_84 0.05256636156566734 
K_L104_108_L77_87 L104_108 L77_87 0.10883648207524568 
K_L127_156_L143_144 L127_156 L143_144 0.14254757301656684 
K_L127_156_L102_103 L127_156 L102_103 0.0525531309275229 
K_L127_156_L35_42 L127_156 L35_42 0.03955431311685669 
K_L127_156_L65_66 L127_156 L65_66 0.08361454648979605 
K_L127_156_L72_73 L127_156 L72_73 0.07356496268461167 
K_L127_156_L123_137 L127_156 L123_137 0.05665627673699989 
K_L127_156_L121_122 L127_156 L121_122 0.2540405254645282 
K_L127_156_L91_92 L127_156 L91_92 0.10484860148495719 
K_L127_156_L135_136 L127_156 L135_136 0.4278453776739134 
K_L127_156_L151_157 L127_156 L151_157 0.12782431785770818 
K_L127_156_L131_140 L127_156 L131_140 0.0929093451526496 
K_L127_156_L99_106 L127_156 L99_106 0.1367680241467154 