.subckt X1 Out Pos Neg K_H K_L G_H G_L M1_Drain M1_Source M1_Gate M2_Drain M2_Source M2_Gate M3_Drain M3_Source M3_Gate M4_Drain M4_Source M4_Gate M1_Gate M2_Gate M3_Gate M4_Gate M1_Source M2_Source M3_Source M4_Source M1_Source M2_Source M3_Source M4_Source
R1_32 K_H K_H_n32 0.0012549215375962598 
L1_32 K_H_n32 n32 1.0830152281809613e-09 
R1_33 K_H K_H_n33 0.46327457974448616 
L1_33 K_H_n33 n33 0.462607772179201 
R1_37 K_H K_H_n37 0.0010947921465706643 
L1_37 K_H_n37 n37 9.801170048592094e-10 
R1_38 K_H K_H_n38 0.03802457395772217 
L1_38 K_H_n38 n38 0.037442233904455134 
R2_48 bk1 bk1_n48 0.32348972604211534 
L2_48 bk1_n48 n48 0.32270372561217964 
R2_49 bk1 bk1_n49 0.3235947377159013 
L2_49 bk1_n49 n49 0.32270372570600775 
R2_53 bk1 bk1_n53 0.1782462894106764 
L2_53 bk1_n53 n53 0.17734628085028606 
R2_54 bk1 bk1_n54 0.17836653285721527 
L2_54 bk1_n54 n54 0.17734628095178012 
R4_49 bk2 bk2_n49 0.3240545005290564 
L4_49 bk2_n49 n49 0.3227037261168067 
R4_50 bk2 bk2_n50 0.32302996322896027 
L4_50 bk2_n50 n50 0.3227037252013807 
R4_54 bk2 bk2_n54 0.17889298351980418 
L4_54 bk2_n54 n54 0.17734628139614209 
R4_55 bk2 bk2_n55 0.1777198387480875 
L4_55 bk2_n55 n55 0.17734628040592412 
R6_57 Pos Pos_n57 0.0010503929991893888 
L6_57 Pos_n57 n57 1.0482959973291061e-09 
R6_58 Pos Pos_n58 0.46741655332731696 
L6_58 Pos_n58 n58 0.4668676173243933 
R6_62 Pos Pos_n62 0.0006275606401196695 
L6_62 Pos_n62 n62 7.54844256630338e-10 
R6_63 Pos Pos_n63 0.03351553579367566 
L6_63 Pos_n63 n63 0.033182388577577195 
R7_73 M1_Drain M1_Drain_n73 0.4431676632478329 
L7_73 M1_Drain_n73 n73 0.442718005262578 
R7_74 M1_Drain M1_Drain_n74 0.44322773872622506 
L7_74 M1_Drain_n74 n74 0.44271800533429884 
R7_68 M1_Drain M1_Drain_n68 0.057781658796822476 
L7_68 M1_Drain_n68 n68 0.05733200081156757 
R7_69 M1_Drain M1_Drain_n69 0.05784173427521467 
L7_69 M1_Drain_n69 n69 0.05733200088328841 
R9_74 M2_Drain M2_Drain_n74 0.44349076158788847 
L9_74 M2_Drain_n74 n74 0.44271800564830743 
R9_75 M2_Drain M2_Drain_n75 0.4429046403861695 
L9_75 M2_Drain_n75 n75 0.44271800494856933 
R9_70 M2_Drain M2_Drain_n70 0.05751863593515911 
L9_70 M2_Drain_n70 n70 0.05733200049755894 
R9_69 M2_Drain M2_Drain_n69 0.05810475713687804 
L9_69 M2_Drain_n69 n69 0.05733200119729704 
R11_88 Neg Neg_n88 0.006088184287573356 
L11_88 Neg_n88 n88 0.004838516158892494 
R11_92 Neg Neg_n92 0.4963025171567301 
L11_92 Neg_n92 n92 0.49521149104378476 
R11_93 Neg Neg_n93 0.4964611593217195 
L11_93 Neg_n93 n93 0.4952114911930387 
R11_87 Neg Neg_n87 0.005929542122583953 
L11_87 Neg_n87 n87 0.004838516009638558 
R12_98 bs3 bs3_n98 0.3419882060342081 
L12_98 bs3_n98 n98 0.34143086216332313 
R12_99 bs3 bs3_n99 0.34321421368751864 
L12_99 bs3_n99 n99 0.3414308633167773 
R12_94 bs3 bs3_n94 0.1604024954100954 
L12_94 bs3_n94 n94 0.15861914503935412 
R12_93 bs3 bs3_n93 0.1591764877567849 
L12_93 bs3_n93 n93 0.15861914388589993 
R14_99 bs4 bs4_n99 0.3419011625252423 
L14_99 bs4_n99 n99 0.34143086208143075 
R14_100 bs4 bs4_n100 0.34330125719648447 
L14_100 bs4_n100 n100 0.3414308633986697 
R14_94 bs4 bs4_n94 0.15908944424781907 
L14_94 bs4_n94 n94 0.15861914380400755 
R14_95 bs4 bs4_n95 0.16048953891906123 
L14_95 bs4_n95 n95 0.1586191451212465 
R16_186 M3_Drain M3_Drain_n186 0.12249178922049697 
L16_186 M3_Drain_n186 n186 0.12171467729948002 
R16_187 M3_Drain M3_Drain_n187 0.12216699978026077 
L16_187 M3_Drain_n187 n187 0.12171467694672425 
R16_190 M3_Drain M3_Drain_n190 0.37911244131009075 
L16_190 M3_Drain_n190 n190 0.3783353293890738 
R16_191 M3_Drain M3_Drain_n191 0.3787876518698545 
L16_191 M3_Drain_n191 n191 0.378335329036318 
R18_192 M4_Drain M4_Drain_n192 0.37845670114431096 
L18_192 M4_Drain_n192 n192 0.3783353286768704 
R18_187 M4_Drain M4_Drain_n187 0.12282273994604055 
L18_187 M4_Drain_n187 n187 0.1217146776589276 
R18_188 M4_Drain M4_Drain_n188 0.12183604905471719 
L18_188 M4_Drain_n188 n188 0.12171467658727665 
R18_191 M4_Drain M4_Drain_n191 0.3794433920356343 
L18_191 M4_Drain_n191 n191 0.3783353297485214 
R20_170 bs1 bs1_n170 0.0007872797948938184 
L20_170 bs1_n170 n170 6.812564440808124e-10 
R20_171 bs1 bs1_n171 0.001266977041526009 
L20_171 bs1_n171 n171 1.0906975880835712e-09 
R20_166 bs1 bs1_n166 0.0007813954850314534 
L20_166 bs1_n166 n166 6.680965205332519e-10 
R20_167 bs1 bs1_n167 0.0012610927316636436 
L20_167 bs1_n167 n167 1.0775376645360113e-09 
R21_168 bs2 bs2_n168 0.000733941058231504 
L21_168 bs2_n168 n168 6.275922338537323e-10 
R21_171 bs2 bs2_n171 0.0013144314683259583 
L21_171 bs2_n171 n171 1.1312018747630907e-09 
R21_172 bs2 bs2_n172 0.0007398253680938689 
L21_172 bs2_n172 n172 6.407521574012929e-10 
R21_167 bs2 bs2_n167 0.0013085471584635931 
L21_167 bs2_n167 n167 1.118041951215531e-09 
R22_203 Out Out_n203 0.00047815047368646445 
L22_203 Out_n203 n203 7.902030800168448e-10 
R22_204 Out Out_n204 0.0004749370246648634 
L22_204 Out_n204 n204 7.146276998420331e-10 
R22_198 Out Out_n198 0.00034404245608260893 
L22_198 Out_n198 n198 5.905637102409428e-10 
R22_199 Out Out_n199 0.00034082900706100793 
L22_199 Out_n199 n199 5.149883300661306e-10 
R23_227 K_L K_L_n227 0.0011000252343329605 
L23_227 K_L_n227 n227 9.878477243985919e-10 
R23_228 K_L K_L_n228 0.13876260513820748 
L23_228 K_L_n228 n228 0.1381776346666837 
R23_222 K_L K_L_n222 0.0011006845350417505 
L23_222 K_L_n222 n222 9.996555003915425e-10 
R23_223 K_L K_L_n223 0.3624573418486036 
L23_223 K_L_n223 n223 0.36187237137707984 
R24_218 bk3 bk3_n218 0.3212502708862864 
L24_218 bk3_n218 n218 0.32001400070219155 
R24_219 bk3 bk3_n219 0.32046231728660335 
L24_219 bk3_n219 n219 0.32001399999955565 
R24_214 bk3 bk3_n214 0.18054794843767735 
L24_214 bk3_n214 n214 0.18003600583253504 
R24_213 bk3 bk3_n213 0.18144772859505337 
L24_213 bk3_n213 n213 0.18003600659148508 
R25_216 bk4 bk4_n216 0.001766050346985768 
L25_216 bk4_n216 n216 1.4986906266061e-09 
R25_220 bk4 bk4_n220 0.3201524913299242 
L25_220 bk4_n220 n220 0.3200139997232769 
R25_221 bk4 bk4_n221 0.0015470404279010349 
L25_221 bk4_n221 n221 1.3955815582810012e-09 
R25_215 bk4 bk4_n215 0.18019415190933852 
L25_215 bk4_n215 n215 0.18003600553411336 
R26_242 G_L G_L_n242 0.0010956714561418117 
L26_242 G_L_n242 n242 9.802998369981189e-10 
R26_243 G_L G_L_n243 0.03330301650581633 
L26_243 G_L_n243 n243 0.032720199994277575 
R26_237 G_L G_L_n237 0.001255319929348613 
L26_237 G_L_n237 n237 1.0833680015530828e-09 
R26_238 G_L G_L_n238 0.4679968278659063 
L26_238 G_L_n238 n238 0.4673298060897254 
R27_243 bg3 bg3_n243 0.32253016673037904 
L27_243 bg3_n243 n243 0.32222283422219433 
R27_244 bg3 bg3_n244 0.32359388719991544 
L27_244 bg3_n244 n244 0.32222283517228634 
R27_238 bg3 bg3_n238 0.1781789072243819 
L27_238 bg3_n238 n238 0.17782717134966164 
R27_239 bg3 bg3_n239 0.17939631384891044 
L27_239 bg3_n239 n239 0.1778271723771099 
R28_240 bg4 bg4_n240 0.17872719521823535 
L28_240 bg4_n240 n240 0.17782717181239738 
R28_244 bg4 bg4_n244 0.3231148154169039 
L28_244 bg4_n244 n244 0.32222283474438984 
R28_245 bg4 bg4_n245 0.3230092385133906 
L28_245 bg4_n245 n245 0.32222283465009083 
R28_239 bg4 bg4_n239 0.17884802585505702 
L28_239 bg4_n239 n239 0.17782717191437417 
R29_267 G_H G_H_n267 0.0010996428011187114 
L29_267 G_H_n267 n267 9.827829069282848e-10 
R29_268 G_H G_H_n268 0.04375745248746344 
L29_268 G_H_n268 n268 0.04317253660816496 
R29_262 G_H G_H_n262 0.0012569785986936497 
L29_262 G_H_n262 n262 1.0832472993151202e-09 
R29_263 G_H G_H_n263 0.45754543460601044 
L29_263 G_H_n263 n263 0.45687746947736607 
R30_280 bg1 bg1_n280 0.3217223683890016 
L30_280 bg1_n280 n280 0.3200707002240561 
R30_284 bg1 bg1_n284 0.18001672009730166 
L30_284 bg1_n284 n284 0.17997930628089395 
R30_285 bg1 bg1_n285 0.1818654880199387 
L30_285 bg1_n285 n285 0.17997930784032234 
R30_279 bg1 bg1_n279 0.3201034608728664 
L30_279 bg1_n279 n279 0.32007069878038047 
R31_280 bg2 bg2_n280 0.32067073348824887 
L31_280 bg2_n280 n280 0.32007069928625104 
R31_281 bg2 bg2_n281 0.0010853418500752323 
L31_281 bg2_n281 n281 9.839244432745307e-10 
R31_285 bg2 bg2_n285 0.1806645368528957 
L31_285 bg2_n285 n285 0.17997930682732483 
R31_286 bg2 bg2_n286 0.0012388963020665454 
L31_286 bg2_n286 n286 1.0540609640950806e-09 
R32_33 n32 n32_n33 0.00384014012091 
L32_33 n32_n33 n33 3.24135251275e-09 
R32_37 n32 n32_n37 3.17240466175e-06 
L32_37 n32_n37 n37 5.4064308848e-11 
R33_34 n33 n33_n34 0.00384014012091 
L33_34 n33_n34 n34 3.24135251275e-09 
R33_38 n33 n33_n38 1e-06 
L33_38 n33_n38 n38 1e-12 
R34_35 n34 n34_n35 0.00384014012091 
L34_35 n34_n35 n35 3.24135251275e-09 
R34_39 n34 n34_n39 1e-06 
L34_39 n34_n39 n39 1e-12 
R35_40 n35 n35_n40 1e-06 
L35_40 n35_n40 n40 1e-12 
R35_36 n35 n35_n36 0.00384014012091 
L35_36 n35_n36 n36 3.24135251275e-09 
R36_41 n36 n36_n41 3.17240466175e-06 
L36_41 n36_n41 n41 5.4064308848e-11 
R37_42 n37 n37_n42 3.17240466175e-06 
L37_42 n37_n42 n42 5.4064308848e-11 
R37_38 n37 n37_n38 0.0033536924737 
L37_38 n37_n38 n38 2.9965305519e-09 
R38_43 n38 n38_n43 1e-06 
L38_43 n38_n43 n43 1e-12 
R38_39 n38 n38_n39 0.0033536924737 
L38_39 n38_n39 n39 2.9965305519e-09 
R39_40 n39 n39_n40 0.0033536924737 
L39_40 n39_n40 n40 2.9965305519e-09 
R39_44 n39 n39_n44 1e-06 
L39_44 n39_n44 n44 1e-12 
R40_41 n40 n40_n41 0.0033536924737 
L40_41 n40_n41 n41 2.9965305519e-09 
R40_45 n40 n40_n45 1e-06 
L40_45 n40_n45 n45 1e-12 
R41_46 n41 n41_n46 3.17240466174e-06 
L41_46 n41_n46 n46 5.4064308848e-11 
R42_43 n42 n42_n43 0.0033536924737 
L42_43 n42_n43 n43 2.9965305519e-09 
R42_47 n42 n42_n47 3.17240466175e-06 
L42_47 n42_n47 n47 5.4064308848e-11 
R43_48 n43 n43_n48 1e-06 
L43_48 n43_n48 n48 1e-12 
R43_44 n43 n43_n44 0.0033536924737 
L43_44 n43_n44 n44 2.9965305519e-09 
R44_49 n44 n44_n49 1e-06 
L44_49 n44_n49 n49 1e-12 
R44_45 n44 n44_n45 0.0033536924737 
L44_45 n44_n45 n45 2.9965305519e-09 
R45_50 n45 n45_n50 1e-06 
L45_50 n45_n50 n50 1e-12 
R45_46 n45 n45_n46 0.0033536924737 
L45_46 n45_n46 n46 2.9965305519e-09 
R46_51 n46 n46_n51 3.17240466174e-06 
L46_51 n46_n51 n51 5.4064308848e-11 
R47_48 n47 n47_n48 0.0033536924737 
L47_48 n47_n48 n48 2.9965305519e-09 
R47_52 n47 n47_n52 3.17240466175e-06 
L47_52 n47_n52 n52 5.4064308848e-11 
R48_49 n48 n48_n49 0.0033536924737 
L48_49 n48_n49 n49 2.9965305519e-09 
R48_53 n48 n48_n53 1e-06 
L48_53 n48_n53 n53 1e-12 
R49_50 n49 n49_n50 0.0033536924737 
L49_50 n49_n50 n50 2.9965305519e-09 
R49_54 n49 n49_n54 1e-06 
L49_54 n49_n54 n54 1e-12 
R50_51 n50 n50_n51 0.0033536924737 
L50_51 n50_n51 n51 2.9965305519e-09 
R50_55 n50 n50_n55 1e-06 
L50_55 n50_n55 n55 1e-12 
R51_56 n51 n51_n56 3.17240466175e-06 
L51_56 n51_n56 n56 5.4064308848e-11 
R52_53 n52 n52_n53 0.00384014012091 
L52_53 n52_n53 n53 3.24135251275e-09 
R53_54 n53 n53_n54 0.00384014012091 
L53_54 n53_n54 n54 3.24135251275e-09 
R54_55 n54 n54_n55 0.00384014012091 
L54_55 n54_n55 n55 3.24135251275e-09 
R55_56 n55 n55_n56 0.00384014012091 
L55_56 n55_n56 n56 3.24135251275e-09 
R57_58 n57 n57_n58 0.0031613188475 
L57_58 n57_n58 n58 2.90105393011e-09 
R57_62 n57 n57_n62 3.96514979645e-05 
L57_62 n57_n62 n62 2.17122901211e-10 
R58_59 n58 n58_n59 0.0031613188475 
L58_59 n58_n59 n59 2.90105393011e-09 
R58_63 n58 n58_n63 1e-06 
L58_63 n58_n63 n63 1e-12 
R59_64 n59 n59_n64 1e-06 
L59_64 n59_n64 n64 1e-12 
R59_60 n59 n59_n60 0.0031613188475 
L59_60 n59_n60 n60 2.90105393011e-09 
R60_65 n60 n60_n65 1e-06 
L60_65 n60_n65 n65 1e-12 
R60_61 n60 n60_n61 0.0031613188475 
L60_61 n60_n61 n61 2.90105393011e-09 
R61_66 n61 n61_n66 3.96514979645e-05 
L61_66 n61_n66 n66 2.17122901211e-10 
R62_67 n62 n62_n67 3.96514979645e-05 
L62_67 n62_n67 n67 2.17122901211e-10 
R62_63 n62 n62_n63 0.00191859316659 
L62_63 n62_n63 n63 2.29050361626e-09 
R63_64 n63 n63_n64 0.00191859316659 
L63_64 n63_n64 n64 2.29050361626e-09 
R63_68 n63 n63_n68 1e-06 
L63_68 n63_n68 n68 1e-12 
R64_65 n64 n64_n65 0.00191859316659 
L64_65 n64_n65 n65 2.29050361626e-09 
R64_69 n64 n64_n69 1e-06 
L64_69 n64_n69 n69 1e-12 
R65_66 n65 n65_n66 0.00191859316659 
L65_66 n65_n66 n66 2.29050361626e-09 
R65_70 n65 n65_n70 1e-06 
L65_70 n65_n70 n70 1e-12 
R66_71 n66 n66_n71 3.96514979645e-05 
L66_71 n66_n71 n71 2.17122901211e-10 
R67_72 n67 n67_n72 3.96514979645e-05 
L67_72 n67_n72 n72 2.17122901211e-10 
R67_68 n67 n67_n68 0.00191859316659 
L67_68 n67_n68 n68 2.29050361626e-09 
R68_73 n68 n68_n73 1e-06 
L68_73 n68_n73 n73 1e-12 
R68_69 n68 n68_n69 0.00191859316659 
L68_69 n68_n69 n69 2.29050361626e-09 
R69_70 n69 n69_n70 0.00191859316659 
L69_70 n69_n70 n70 2.29050361626e-09 
R69_74 n69 n69_n74 1e-06 
L69_74 n69_n74 n74 1e-12 
R70_71 n70 n70_n71 0.00191859316659 
L70_71 n70_n71 n71 2.29050361626e-09 
R70_75 n70 n70_n75 1e-06 
L70_75 n70_n75 n75 1e-12 
R71_76 n71 n71_n76 3.96514979645e-05 
L71_76 n71_n76 n76 2.17122901211e-10 
R72_73 n72 n72_n73 0.00191859316659 
L72_73 n72_n73 n73 2.29050361626e-09 
R72_77 n72 n72_n77 3.96514979645e-05 
L72_77 n72_n77 n77 2.17122901211e-10 
R73_74 n73 n73_n74 0.00191859316659 
L73_74 n73_n74 n74 2.29050361626e-09 
R73_78 n73 n73_n78 1e-06 
L73_78 n73_n78 n78 1e-12 
R74_75 n74 n74_n75 0.00191859316659 
L74_75 n74_n75 n75 2.29050361626e-09 
R74_79 n74 n74_n79 1e-06 
L74_79 n74_n79 n79 1e-12 
R75_80 n75 n75_n80 1e-06 
L75_80 n75_n80 n80 1e-12 
R75_76 n75 n75_n76 0.00191859316659 
L75_76 n75_n76 n76 2.29050361626e-09 
R76_81 n76 n76_n81 3.96514979645e-05 
L76_81 n76_n81 n81 2.17122901211e-10 
R77_78 n77 n77_n78 0.0031613188475 
L77_78 n77_n78 n78 2.90105393011e-09 
R78_79 n78 n78_n79 0.0031613188475 
L78_79 n78_n79 n79 2.90105393011e-09 
R79_80 n79 n79_n80 0.0031613188475 
L79_80 n79_n80 n80 2.90105393011e-09 
R80_81 n80 n80_n81 0.0031613188475 
L80_81 n80_n81 n81 2.90105393011e-09 
R82_83 n82 n82_n83 0.0054426724347 
L82_83 n82_n83 n83 4.78105548781e-09 
R82_87 n82 n82_n87 1e-06 
L82_87 n82_n87 n87 1e-12 
R83_88 n83 n83_n88 1e-06 
L83_88 n83_n88 n88 1e-12 
R83_84 n83 n83_n84 0.0054426724347 
L83_84 n83_n84 n84 4.78105548781e-09 
R84_89 n84 n84_n89 1e-06 
L84_89 n84_n89 n89 1e-12 
R84_85 n84 n84_n85 0.0054426724347 
L84_85 n84_n85 n85 4.78105548781e-09 
R85_90 n85 n85_n90 1e-06 
L85_90 n85_n90 n90 1e-12 
R85_86 n85 n85_n86 0.0054426724347 
L85_86 n85_n86 n86 4.78105548781e-09 
R86_91 n86 n86_n91 1e-06 
L86_91 n86_n91 n91 1e-12 
R87_88 n87 n87_n88 0.00468092474832 
L87_88 n87_n88 n88 4.40391393926e-09 
R87_92 n87 n87_n92 1e-06 
L87_92 n87_n92 n92 1e-12 
R88_89 n88 n88_n89 0.00468092474832 
L88_89 n88_n89 n89 4.40391393926e-09 
R88_93 n88 n88_n93 1e-06 
L88_93 n88_n93 n93 1e-12 
R89_90 n89 n89_n90 0.00468092474832 
L89_90 n89_n90 n90 4.40391393926e-09 
R89_94 n89 n89_n94 1e-06 
L89_94 n89_n94 n94 1e-12 
R90_91 n90 n90_n91 0.00468092474832 
L90_91 n90_n91 n91 4.40391393926e-09 
R90_95 n90 n90_n95 1e-06 
L90_95 n90_n95 n95 1e-12 
R91_96 n91 n91_n96 1e-06 
L91_96 n91_n96 n96 1e-12 
R92_97 n92 n92_n97 1e-06 
L92_97 n92_n97 n97 1e-12 
R92_93 n92 n92_n93 0.00468092474832 
L92_93 n92_n93 n93 4.40391393926e-09 
R93_98 n93 n93_n98 1e-06 
L93_98 n93_n98 n98 1e-12 
R93_94 n93 n93_n94 0.00468092474832 
L93_94 n93_n94 n94 4.40391393926e-09 
R94_99 n94 n94_n99 1e-06 
L94_99 n94_n99 n99 1e-12 
R94_95 n94 n94_n95 0.00468092474832 
L94_95 n94_n95 n95 4.40391393926e-09 
R95_96 n95 n95_n96 0.00468092474832 
L95_96 n95_n96 n96 4.40391393926e-09 
R95_100 n95 n95_n100 1e-06 
L95_100 n95_n100 n100 1e-12 
R96_101 n96 n96_n101 1e-06 
L96_101 n96_n101 n101 1e-12 
R97_98 n97 n97_n98 0.00468092474832 
L97_98 n97_n98 n98 4.40391393926e-09 
R97_102 n97 n97_n102 1e-06 
L97_102 n97_n102 n102 1e-12 
R98_99 n98 n98_n99 0.00468092474832 
L98_99 n98_n99 n99 4.40391393926e-09 
R98_103 n98 n98_n103 1e-06 
L98_103 n98_n103 n103 1e-12 
R99_100 n99 n99_n100 0.00468092474832 
L99_100 n99_n100 n100 4.40391393926e-09 
R99_104 n99 n99_n104 1e-06 
L99_104 n99_n104 n104 1e-12 
R100_105 n100 n100_n105 1e-06 
L100_105 n100_n105 n105 1e-12 
R100_101 n100 n100_n101 0.00468092474832 
L100_101 n100_n101 n101 4.40391393926e-09 
R101_106 n101 n101_n106 1e-06 
L101_106 n101_n106 n106 1e-12 
R102_103 n102 n102_n103 0.0054426724347 
L102_103 n102_n103 n103 4.78105548781e-09 
R103_104 n103 n103_n104 0.0054426724347 
L103_104 n103_n104 n104 4.78105548781e-09 
R104_105 n104 n104_n105 0.0054426724347 
L104_105 n104_n105 n105 4.78105548781e-09 
R105_106 n105 n105_n106 0.0054426724347 
L105_106 n105_n106 n106 4.78105548781e-09 
R107_112 n107 n107_n112 1e-06 
L107_112 n107_n112 n112 1e-12 
R107_180 n107 n107_n180 0.00352589830663 
L107_180 n107_n180 n180 3.20047482743e-09 
R107_108 n107 n107_n108 0.00105545076739 
L107_108 n107_n108 n108 7.70957761699e-10 
R108_113 n108 n108_n113 0.000229618156516 
L108_113 n108_n113 n113 2.50970475062e-10 
R108_109 n108 n108_n109 0.00105545076739 
L108_109 n108_n109 n109 7.70957761699e-10 
R109_114 n109 n109_n114 0.000229618156516 
L109_114 n109_n114 n114 2.50970475062e-10 
R109_110 n109 n109_n110 0.00105545076739 
L109_110 n109_n110 n110 7.70957761699e-10 
R110_115 n110 n110_n115 0.000229618156516 
L110_115 n110_n115 n115 2.50970475062e-10 
R110_111 n110 n110_n111 0.00105545076739 
L110_111 n110_n111 n111 7.70957761699e-10 
R111_116 n111 n111_n116 0.000548934852813 
L111_116 n111_n116 n116 3.94796036795e-10 
R112_184 n112 n112_n184 0.00245862629248 
L112_184 n112_n184 n184 2.67032889881e-09 
R112_113 n112 n112_n113 0.000679812844952 
L112_113 n112_n113 n113 5.840653076e-10 
R112_117 n112 n112_n117 1e-06 
L112_117 n112_n117 n117 1e-12 
R113_114 n113 n113_n114 0.000679812844952 
L113_114 n113_n114 n114 5.840653076e-10 
R113_118 n113 n113_n118 0.000229618156516 
L113_118 n113_n118 n118 2.50970475062e-10 
R114_115 n114 n114_n115 0.000679812844952 
L114_115 n114_n115 n115 5.840653076e-10 
R114_119 n114 n114_n119 0.000229618156516 
L114_119 n114_n119 n119 2.50970475062e-10 
R115_120 n115 n115_n120 0.000229618156516 
L115_120 n115_n120 n120 2.50970475062e-10 
R115_116 n115 n115_n116 0.000679812844952 
L115_116 n115_n116 n116 5.840653076e-10 
R116_121 n116 n116_n121 0.000548934852813 
L116_121 n116_n121 n121 3.94796036795e-10 
R117_122 n117 n117_n122 1e-06 
L117_122 n117_n122 n122 1e-12 
R117_188 n117 n117_n188 0.00245862629248 
L117_188 n117_n188 n188 2.67032889881e-09 
R117_118 n117 n117_n118 0.000679812844952 
L117_118 n117_n118 n118 5.840653076e-10 
R118_123 n118 n118_n123 0.000229618156516 
L118_123 n118_n123 n123 2.50970475062e-10 
R118_119 n118 n118_n119 0.000679812844952 
L118_119 n118_n119 n119 5.840653076e-10 
R119_120 n119 n119_n120 0.000679812844952 
L119_120 n119_n120 n120 5.840653076e-10 
R119_124 n119 n119_n124 0.000229618156516 
L119_124 n119_n124 n124 2.50970475062e-10 
R120_121 n120 n120_n121 0.000679812844952 
L120_121 n120_n121 n121 5.840653076e-10 
R120_125 n120 n120_n125 0.000229618156516 
L120_125 n120_n125 n125 2.50970475062e-10 
R121_126 n121 n121_n126 0.000548934852813 
L121_126 n121_n126 n126 3.94796036795e-10 
R122_192 n122 n122_n192 0.00245862629248 
L122_192 n122_n192 n192 2.67032889881e-09 
R122_123 n122 n122_n123 0.000679812844952 
L122_123 n122_n123 n123 5.840653076e-10 
R122_127 n122 n122_n127 1e-06 
L122_127 n122_n127 n127 1e-12 
R123_128 n123 n123_n128 0.000229618156516 
L123_128 n123_n128 n128 2.50970475062e-10 
R123_124 n123 n123_n124 0.000679812844952 
L123_124 n123_n124 n124 5.840653076e-10 
R124_129 n124 n124_n129 0.000229618156516 
L124_129 n124_n129 n129 2.50970475062e-10 
R124_125 n124 n124_n125 0.000679812844952 
L124_125 n124_n125 n125 5.840653076e-10 
R125_130 n125 n125_n130 0.000229618156516 
L125_130 n125_n130 n130 2.50970475062e-10 
R125_126 n125 n125_n126 0.000679812844952 
L125_126 n125_n126 n126 5.840653076e-10 
R126_131 n126 n126_n131 0.000548934852813 
L126_131 n126_n131 n131 3.94796036795e-10 
R127_128 n127 n127_n128 1e-06 
L127_128 n127_n128 n128 1e-12 
R127_196 n127 n127_n196 0.00352589830663 
L127_196 n127_n196 n196 3.20047482743e-09 
R127_197 n127 n127_n197 0.00329496912227 
L127_197 n127_n197 n197 3.25998429961e-09 
R128_129 n128 n128_n129 1e-06 
L128_129 n128_n129 n129 1e-12 
R128_198 n128 n128_n198 0.00162998645373 
L128_198 n128_n198 n198 2.42647288492e-09 
R129_130 n129 n129_n130 1e-06 
L129_130 n129_n130 n130 1e-12 
R129_199 n129 n129_n199 0.00162998645373 
L129_199 n129_n199 n199 2.42647288492e-09 
R130_200 n130 n130_n200 0.00162998645373 
L130_200 n130_n200 n200 2.42647288492e-09 
R130_131 n130 n130_n131 1e-06 
L130_131 n130_n131 n131 1e-12 
R131_201 n131 n131_n201 0.00329496912227 
L131_201 n131_n201 n201 3.25998429961e-09 
R132_160 n132 n132_n160 0.0042603982948 
L132_160 n132_n160 n160 3.57748028557e-09 
R132_137 n132 n132_n137 1e-06 
L132_137 n132_n137 n137 1e-12 
R132_133 n132 n132_n133 1e-06 
L132_133 n132_n133 n133 1e-12 
R132_207 n132 n132_n207 0.00329496912227 
L132_207 n132_n207 n207 3.25998429961e-09 
R133_208 n133 n133_n208 0.00162998645373 
L133_208 n133_n208 n208 2.42647288492e-09 
R133_138 n133 n133_n138 7.63610853265e-05 
L133_138 n133_n138 n138 5.42774230063e-11 
R133_134 n133 n133_n134 1e-06 
L133_134 n133_n134 n134 1e-12 
R134_209 n134 n134_n209 0.00162998645373 
L134_209 n134_n209 n209 2.42647288492e-09 
R134_139 n134 n134_n139 7.63610853265e-05 
L134_139 n134_n139 n139 5.42774230063e-11 
R134_135 n134 n134_n135 1e-06 
L134_135 n134_n135 n135 1e-12 
R135_136 n135 n135_n136 1e-06 
L135_136 n135_n136 n136 1e-12 
R135_210 n135 n135_n210 0.00162998645373 
L135_210 n135_n210 n210 2.42647288492e-09 
R135_140 n135 n135_n140 7.63610853265e-05 
L135_140 n135_n140 n140 5.42774230063e-11 
R136_211 n136 n136_n211 0.00329496912227 
L136_211 n136_n211 n211 3.25998429961e-09 
R136_141 n136 n136_n141 0.000159475906624 
L136_141 n136_n141 n141 7.55301174558e-11 
R137_138 n137 n137_n138 0.00128625854582 
L137_138 n137_n138 n138 9.04892907381e-10 
R137_164 n137 n137_n164 0.00408126033019 
L137_164 n137_n164 n164 3.48352197203e-09 
R137_142 n137 n137_n142 1e-06 
L137_142 n137_n142 n142 1e-12 
R138_139 n138 n138_n139 0.00128625854582 
L138_139 n138_n139 n139 9.04892907381e-10 
R138_143 n138 n138_n143 7.63610853265e-05 
L138_143 n138_n143 n143 5.42774230063e-11 
R139_144 n139 n139_n144 7.63610853265e-05 
L139_144 n139_n144 n144 5.42774230063e-11 
R139_140 n139 n139_n140 0.00128625854582 
L139_140 n139_n140 n140 9.04892907381e-10 
R140_145 n140 n140_n145 7.63610853265e-05 
L140_145 n140_n145 n145 5.42774230063e-11 
R140_141 n140 n140_n141 0.00128625854582 
L140_141 n140_n141 n141 9.04892907381e-10 
R141_146 n141 n141_n146 0.000159475906624 
L141_146 n141_n146 n146 7.55301174558e-11 
R142_168 n142 n142_n168 0.00408126033019 
L142_168 n142_n168 n168 3.48352197203e-09 
R142_147 n142 n142_n147 1e-06 
L142_147 n142_n147 n147 1e-12 
R142_143 n142 n142_n143 0.00128625854582 
L142_143 n142_n143 n143 9.04892907381e-10 
R143_144 n143 n143_n144 0.00128625854582 
L143_144 n143_n144 n144 9.04892907381e-10 
R143_148 n143 n143_n148 7.63610853265e-05 
L143_148 n143_n148 n148 5.42774230063e-11 
R144_145 n144 n144_n145 0.00128625854582 
L144_145 n144_n145 n145 9.04892907381e-10 
R144_149 n144 n144_n149 7.63610853265e-05 
L144_149 n144_n149 n149 5.42774230063e-11 
R145_146 n145 n145_n146 0.00128625854582 
L145_146 n145_n146 n146 9.04892907381e-10 
R145_150 n145 n145_n150 7.63610853265e-05 
L145_150 n145_n150 n150 5.42774230063e-11 
R146_151 n146 n146_n151 0.000159475906624 
L146_151 n146_n151 n151 7.55301174558e-11 
R147_152 n147 n147_n152 1e-06 
L147_152 n147_n152 n152 1e-12 
R147_172 n147 n147_n172 0.00408126033019 
L147_172 n147_n172 n172 3.48352197203e-09 
R147_148 n147 n147_n148 0.00128625854582 
L147_148 n147_n148 n148 9.04892907381e-10 
R148_153 n148 n148_n153 7.63610853265e-05 
L148_153 n148_n153 n153 5.42774230063e-11 
R148_149 n148 n148_n149 0.00128625854582 
L148_149 n148_n149 n149 9.04892907381e-10 
R149_154 n149 n149_n154 7.63610853265e-05 
L149_154 n149_n154 n154 5.42774230063e-11 
R149_150 n149 n149_n150 0.00128625854582 
L149_150 n149_n150 n150 9.04892907381e-10 
R150_155 n150 n150_n155 7.63610853265e-05 
L150_155 n150_n155 n155 5.42774230063e-11 
R150_151 n150 n150_n151 0.00128625854582 
L150_151 n150_n151 n151 9.04892907381e-10 
R151_156 n151 n151_n156 0.000159475906624 
L151_156 n151_n156 n156 7.55301174558e-11 
R152_176 n152 n152_n176 0.0042603982948 
L152_176 n152_n176 n176 3.57748028557e-09 
R152_153 n152 n152_n153 0.00137048756088 
L152_153 n152_n153 n153 9.58841593303e-10 
R153_154 n153 n153_n154 0.00137048756088 
L153_154 n153_n154 n154 9.58841593303e-10 
R154_155 n154 n154_n155 0.00137048756088 
L154_155 n154_n155 n155 9.58841593303e-10 
R155_156 n155 n155_n156 0.00137048756088 
L155_156 n155_n156 n156 9.58841593303e-10 
R157_161 n157 n157_n161 1e-06 
L157_161 n157_n161 n161 1e-12 
R157_158 n157 n157_n158 0.0042603982948 
L157_158 n157_n158 n158 3.57748028557e-09 
R158_162 n158 n158_n162 1.50750484242e-05 
L158_162 n158_n162 n162 3.37144863847e-11 
R158_159 n158 n158_n159 0.0042603982948 
L158_159 n158_n159 n159 3.57748028557e-09 
R159_160 n159 n159_n160 0.0042603982948 
L159_160 n159_n160 n160 3.57748028557e-09 
R159_163 n159 n159_n163 1.50750484242e-05 
L159_163 n159_n163 n163 3.37144863847e-11 
R160_164 n160 n160_n164 1.50750484242e-05 
L160_164 n160_n164 n164 3.37144863847e-11 
R161_162 n161 n161_n162 0.00408126033019 
L161_162 n161_n162 n162 3.48352197203e-09 
R161_165 n161 n161_n165 1e-06 
L161_165 n161_n165 n165 1e-12 
R162_163 n162 n162_n163 0.00408126033019 
L162_163 n162_n163 n163 3.48352197203e-09 
R162_166 n162 n162_n166 1.50750484242e-05 
L162_166 n162_n166 n166 3.37144863847e-11 
R163_164 n163 n163_n164 0.00408126033019 
L163_164 n163_n164 n164 3.48352197203e-09 
R163_167 n163 n163_n167 1.50750484242e-05 
L163_167 n163_n167 n167 3.37144863847e-11 
R164_168 n164 n164_n168 1.50750484242e-05 
L164_168 n164_n168 n168 3.37144863847e-11 
R165_166 n165 n165_n166 0.00408126033019 
L165_166 n165_n166 n166 3.48352197203e-09 
R165_169 n165 n165_n169 1e-06 
L165_169 n165_n169 n169 1e-12 
R166_170 n166 n166_n170 1.50750484242e-05 
L166_170 n166_n170 n170 3.37144863847e-11 
R166_167 n166 n166_n167 0.00408126033019 
L166_167 n166_n167 n167 3.48352197203e-09 
R167_168 n167 n167_n168 0.00408126033019 
L167_168 n167_n168 n168 3.48352197203e-09 
R167_171 n167 n167_n171 1.50750484242e-05 
L167_171 n167_n171 n171 3.37144863847e-11 
R168_172 n168 n168_n172 1.50750484242e-05 
L168_172 n168_n172 n172 3.37144863847e-11 
R169_170 n169 n169_n170 0.00408126033019 
L169_170 n169_n170 n170 3.48352197203e-09 
R169_173 n169 n169_n173 1e-06 
L169_173 n169_n173 n173 1e-12 
R170_171 n170 n170_n171 0.00408126033019 
L170_171 n170_n171 n171 3.48352197203e-09 
R170_174 n170 n170_n174 1.50750484242e-05 
L170_174 n170_n174 n174 3.37144863847e-11 
R171_172 n171 n171_n172 0.00408126033019 
L171_172 n171_n172 n172 3.48352197203e-09 
R171_175 n171 n171_n175 1.50750484242e-05 
L171_175 n171_n175 n175 3.37144863847e-11 
R172_176 n172 n172_n176 1.50750484242e-05 
L172_176 n172_n176 n176 3.37144863847e-11 
R173_174 n173 n173_n174 0.0042603982948 
L173_174 n173_n174 n174 3.57748028557e-09 
R174_175 n174 n174_n175 0.0042603982948 
L174_175 n174_n175 n175 3.57748028557e-09 
R175_176 n175 n175_n176 0.0042603982948 
L175_176 n175_n176 n176 3.57748028557e-09 
R177_178 n177 n177_n178 0.00352589830663 
L177_178 n177_n178 n178 3.20047482743e-09 
R177_181 n177 n177_n181 5.1590663203e-06 
L177_181 n177_n181 n181 1.5463842964e-10 
R178_179 n178 n178_n179 0.00352589830663 
L178_179 n178_n179 n179 3.20047482743e-09 
R178_182 n178 n178_n182 1e-06 
L178_182 n178_n182 n182 1e-12 
R179_180 n179 n179_n180 0.00352589830663 
L179_180 n179_n180 n180 3.20047482743e-09 
R179_183 n179 n179_n183 1e-06 
L179_183 n179_n183 n183 1e-12 
R180_184 n180 n180_n184 1e-06 
L180_184 n180_n184 n184 1e-12 
R181_182 n181 n181_n182 0.00245862629248 
L181_182 n181_n182 n182 2.67032889881e-09 
R181_185 n181 n181_n185 5.1590663203e-06 
L181_185 n181_n185 n185 1.5463842964e-10 
R182_186 n182 n182_n186 1e-06 
L182_186 n182_n186 n186 1e-12 
R182_183 n182 n182_n183 0.00245862629248 
L182_183 n182_n183 n183 2.67032889881e-09 
R183_184 n183 n183_n184 0.00245862629248 
L183_184 n183_n184 n184 2.67032889881e-09 
R183_187 n183 n183_n187 1e-06 
L183_187 n183_n187 n187 1e-12 
R184_188 n184 n184_n188 1e-06 
L184_188 n184_n188 n188 1e-12 
R185_186 n185 n185_n186 0.00245862629248 
L185_186 n185_n186 n186 2.67032889881e-09 
R185_189 n185 n185_n189 5.1590663203e-06 
L185_189 n185_n189 n189 1.5463842964e-10 
R186_187 n186 n186_n187 0.00245862629248 
L186_187 n186_n187 n187 2.67032889881e-09 
R186_190 n186 n186_n190 1e-06 
L186_190 n186_n190 n190 1e-12 
R187_188 n187 n187_n188 0.00245862629248 
L187_188 n187_n188 n188 2.67032889881e-09 
R187_191 n187 n187_n191 1e-06 
L187_191 n187_n191 n191 1e-12 
R188_192 n188 n188_n192 1e-06 
L188_192 n188_n192 n192 1e-12 
R189_190 n189 n189_n190 0.00245862629248 
L189_190 n189_n190 n190 2.67032889881e-09 
R189_193 n189 n189_n193 5.1590663203e-06 
L189_193 n189_n193 n193 1.5463842964e-10 
R190_194 n190 n190_n194 1e-06 
L190_194 n190_n194 n194 1e-12 
R190_191 n190 n190_n191 0.00245862629248 
L190_191 n190_n191 n191 2.67032889881e-09 
R191_192 n191 n191_n192 0.00245862629248 
L191_192 n191_n192 n192 2.67032889881e-09 
R191_195 n191 n191_n195 1e-06 
L191_195 n191_n195 n195 1e-12 
R192_196 n192 n192_n196 1e-06 
L192_196 n192_n196 n196 1e-12 
R193_194 n193 n193_n194 0.00352589830663 
L193_194 n193_n194 n194 3.20047482743e-09 
R194_195 n194 n194_n195 0.00352589830663 
L194_195 n194_n195 n195 3.20047482743e-09 
R195_196 n195 n195_n196 0.00352589830663 