.subckt X1 DC_plus DC_minus Gate M1_D M1_S M1_G M2_D M2_S M2_G M1_S M2_S M1_G M2_G
R1_18 Gate Gate_n18 0.00014564984308160816 
L1_18 Gate_n18 n18 5.835136663673897e-10 
R1_15 Gate Gate_n15 7.282492154080408e-05 
L1_15 Gate_n15 n15 2.9175683318369485e-10 
R2_18 bwG_m1 bwG_m1_n18 5.598690838851122e-05 
L2_18 bwG_m1_n18 n18 2.2864018212415067e-10 
R2_19 bwG_m1 bwG_m1_n19 5.676501387033911e-05 
L2_19 bwG_m1_n19 n19 2.3360066140425706e-10 
R2_21 bwG_m1 bwG_m1_n21 0.00017367230982463634 
L2_21 bwG_m1_n21 n21 6.896849516259485e-10 
R2_22 bwG_m1 bwG_m1_n22 0.00016525474424345754 
L2_22 bwG_m1_n22 n22 6.517687862020314e-10 
R4_17 bwG_m2 bwG_m2_n17 5.676501387033911e-05 
L4_17 bwG_m2_n17 n17 2.3360066140425706e-10 
R4_18 bwG_m2 bwG_m2_n18 5.598690838851122e-05 
L4_18 bwG_m2_n18 n18 2.2864018212415067e-10 
R4_20 bwG_m2 bwG_m2_n20 0.00016525474424345754 
L4_20 bwG_m2_n20 n20 6.517687862020314e-10 
R4_21 bwG_m2 bwG_m2_n21 0.00017367230982463634 
L4_21 bwG_m2_n21 n21 6.896849516259485e-10 
R6_51 bwS_m2 bwS_m2_n51 6.755959158842519e-05 
L6_51 bwS_m2_n51 n51 3.8253692477731864e-10 
R6_52 bwS_m2 bwS_m2_n52 4.106743359264566e-05 
L6_52 bwS_m2_n52 n52 1.9731601728875985e-10 
R6_54 bwS_m2 bwS_m2_n54 0.00014200145954012234 
L6_54 bwS_m2_n54 n54 8.195917326501609e-10 
R6_55 bwS_m2 bwS_m2_n55 0.00016271026444766124 
L6_55 bwS_m2_n55 n55 7.649460193201775e-10 
R8_48 DC_minus DC_minus_n48 4.9722576433341485e-05 
L8_48 DC_minus_n48 n48 2.473026416226644e-10 
R8_41 DC_minus DC_minus_n41 0.00011833375850783362 
L8_41 DC_minus_n41 n41 5.90129272476732e-10 
R8_44 DC_minus DC_minus_n44 0.00012083568019464688 
L8_44 DC_minus_n44 n44 6.311228569391659e-10 
R8_47 DC_minus DC_minus_n47 3.566682684743226e-05 
L8_47 DC_minus_n47 n47 1.761604744940399e-10 
R9_35 bwS_m1 bwS_m1_n35 4.106743359264567e-05 
L9_35 bwS_m1_n35 n35 1.9731601728875993e-10 
R9_36 bwS_m1 bwS_m1_n36 6.755959158842517e-05 
L9_36 bwS_m1_n36 n36 3.825369247773185e-10 
R9_38 bwS_m1 bwS_m1_n38 0.00016271026444766124 
L9_38 bwS_m1_n38 n38 7.649460193201776e-10 
R9_39 bwS_m1 bwS_m1_n39 0.00014200145954012232 
L9_39 bwS_m1_n39 n39 8.195917326501608e-10 
R11_59 M2_D M2_D_n59 7.843031089429943e-05 
L11_59 M2_D_n59 n59 4.052703519216243e-10 
R11_60 M2_D M2_D_n60 3.231610132272761e-05 
L11_60 M2_D_n60 n60 1.952018695787336e-10 
R11_62 M2_D M2_D_n62 0.00020045170634716588 
L11_62 M2_D_n62 n62 9.712614162057682e-10 
R11_63 M2_D M2_D_n63 0.00010094702098340248 
L11_63 M2_D_n63 n63 6.183524804447522e-10 
R12_93 DC_plus DC_plus_n93 2.60138913488833e-05 
L12_93 DC_plus_n93 n93 1.1528085170012368e-10 
R12_94 DC_plus DC_plus_n94 2.60138913488833e-05 
L12_94 DC_plus_n94 n94 1.1528085170012368e-10 
R13_88 M1_D M1_D_n88 3.879255956252102e-05 
L13_88 M1_D_n88 n88 2.1530948413504221e-10 
R13_89 M1_D M1_D_n89 8.13092963888201e-05 
L13_89 M1_D_n89 n89 3.810254958013129e-10 
R13_91 M1_D M1_D_n91 0.00022643627818146327 
L13_91 M1_D_n91 n91 9.812698173667693e-10 
R13_90 M1_D M1_D_n90 0.00012223660245881167 
L13_90 M1_D_n90 n90 6.802938812606748e-10 
R14_17 n14 n14_n17 0.00041044510684 
L14_17 n14_n17 n17 1.64141083512e-09 
R14_15 n14 n14_n15 1.8735590734e-05 
L14_15 n14_n15 n15 4.45905781495e-11 
R15_16 n15 n15_n16 1.8735590734e-05 
L15_16 n15_n16 n16 4.45905781495e-11 
R15_18 n15 n15_n18 0.000436905834292 
L15_18 n15_n18 n18 1.750365945e-09 
R16_19 n16 n16_n19 0.00041044510684 
L16_19 n16_n19 n19 1.64141083512e-09 
R17_20 n17 n17_n20 0.00041044510684 
L17_20 n17_n20 n20 1.64141083512e-09 
R17_18 n17 n17_n18 3.71810849929e-05 
L17_18 n17_n18 n18 1.70661065528e-10 
R18_19 n18 n18_n19 3.71810849929e-05 
L18_19 n18_n19 n19 1.70661065528e-10 
R18_21 n18 n18_n21 0.000436905834292 
L18_21 n18_n21 n21 1.750365945e-09 
R19_22 n19 n19_n22 0.00041044510684 
L19_22 n19_n22 n22 1.64141083512e-09 
R20_21 n20 n20_n21 1.8735590734e-05 
L20_21 n20_n21 n21 4.45905781495e-11 
R21_22 n21 n21_n22 1.8735590734e-05 
L21_22 n21_n22 n22 4.45905781495e-11 
R23_24 n23 n23_n24 0.000203912393983 
L23_24 n23_n24 n24 8.04185674324e-10 
R23_26 n23 n23_n26 0.000203912393983 
L23_26 n23_n26 n26 8.04185674324e-10 
R24_25 n24 n24_n25 0.000203912393983 
L24_25 n24_n25 n25 8.04185674324e-10 
R24_27 n24 n24_n27 0.000107621669537 
L24_27 n24_n27 n27 5.6149687283e-10 
R25_28 n25 n25_n28 9.68521152489e-05 
L25_28 n25_n28 n28 5.48638877545e-10 
R25_47 n25 n25_n47 0.000211096537775 
L25_47 n25_n47 n47 1.02473063262e-09 
R26_27 n26 n26_n27 0.000107621669537 
L26_27 n26_n27 n27 5.6149687283e-10 
R26_29 n26 n26_n29 0.000203912393983 
L26_29 n26_n29 n29 8.04185674324e-10 
R27_28 n27 n27_n28 0.000107621669537 
L27_28 n27_n28 n28 5.6149687283e-10 
R27_30 n27 n27_n30 0.000107621669537 
L27_30 n27_n30 n30 5.6149687283e-10 
R28_48 n28 n28_n48 0.000195771652378 
L28_48 n28_n48 n48 9.95131906965e-10 
R28_31 n28 n28_n31 9.68521152489e-05 
L28_31 n28_n31 n31 5.48638877545e-10 
R29_50 n29 n29_n50 0.000383383102562 
L29_50 n29_n50 n50 1.79158875212e-09 
R29_30 n29 n29_n30 6.88421712664e-05 
L29_30 n29_n30 n30 4.3499106043e-10 
R30_51 n30 n30_n51 0.000242115578198 
L30_51 n30_n51 n51 1.43056918539e-09 
R30_31 n30 n30_n31 6.88421712664e-05 
L30_31 n30_n31 n31 4.3499106043e-10 
R31_52 n31 n31_n52 0.000383383102562 
L31_52 n31_n52 n52 1.79158875212e-09 
R31_49 n31 n31_n49 0.000211096537775 
L31_49 n31_n49 n49 1.02473063262e-09 
R32_49 n32 n32_n49 0.000211096537775 
L32_49 n32_n49 n49 1.02473063262e-09 
R32_35 n32 n32_n35 0.000383383102562 
L32_35 n32_n35 n35 1.79158875212e-09 
R32_44 n32 n32_n44 9.68521152489e-05 
L32_44 n32_n44 n44 5.48638877545e-10 
R32_33 n32 n32_n33 6.88421712664e-05 
L32_33 n32_n33 n33 4.3499106043e-10 
R33_34 n33 n33_n34 6.88421712664e-05 
L33_34 n33_n34 n34 4.3499106043e-10 
R33_36 n33 n33_n36 0.000242115578198 
L33_36 n33_n36 n36 1.43056918539e-09 
R33_45 n33 n33_n45 0.000107621669537 
L33_45 n33_n45 n45 5.6149687283e-10 
R34_37 n34 n34_n37 0.000383383102562 
L34_37 n34_n37 n37 1.79158875212e-09 
R34_46 n34 n34_n46 0.000203912393983 
L34_46 n34_n46 n46 8.04185674324e-10 
R35_36 n35 n35_n36 0.000103505292092 
L35_36 n35_n36 n36 5.73743015814e-10 
R35_38 n35 n35_n38 0.000383383102562 
L35_38 n35_n38 n38 1.79158875212e-09 
R36_37 n36 n36_n37 0.000103505292092 
L36_37 n36_n37 n37 5.73743015814e-10 
R36_39 n36 n36_n39 0.000242115578198 
L36_39 n36_n39 n39 1.43056918539e-09 
R37_40 n37 n37_n40 0.000383383102562 
L37_40 n37_n40 n40 1.79158875212e-09 
R38_39 n38 n38_n39 9.75908577368e-05 
L38_39 n38_n39 n39 5.32447556608e-10 
R39_40 n39 n39_n40 9.75908577368e-05 
L39_40 n39_n40 n40 5.32447556608e-10 
R41_42 n41 n41_n42 0.000203912393983 
L41_42 n41_n42 n42 8.04185674324e-10 
R41_44 n41 n41_n44 9.68521152489e-05 
L41_44 n41_n44 n44 5.48638877545e-10 
R41_47 n41 n41_n47 0.000211096537775 
L41_47 n41_n47 n47 1.02473063262e-09 
R42_43 n42 n42_n43 0.000203912393983 
L42_43 n42_n43 n43 8.04185674324e-10 
R42_45 n42 n42_n45 0.000107621669537 
L42_45 n42_n45 n45 5.6149687283e-10 
R43_46 n43 n43_n46 0.000203912393983 
L43_46 n43_n46 n46 8.04185674324e-10 
R44_45 n44 n44_n45 0.000107621669537 
L44_45 n44_n45 n45 5.6149687283e-10 
R44_48 n44 n44_n48 0.000195771652378 
L44_48 n44_n48 n48 9.95131906965e-10 
R45_46 n45 n45_n46 0.000107621669537 
L45_46 n45_n46 n46 5.6149687283e-10 
R47_48 n47 n47_n48 0.000145332466796 
L47_48 n47_n48 n48 7.20600130886e-10 
R48_49 n48 n48_n49 0.000145332466796 
L48_49 n48_n49 n49 7.20600130886e-10 
R50_51 n50 n50_n51 0.000103505292092 
L50_51 n50_n51 n51 5.73743015814e-10 
R50_53 n50 n50_n53 0.000383383102562 
L50_53 n50_n53 n53 1.79158875212e-09 
R51_52 n51 n51_n52 0.000103505292092 
L51_52 n51_n52 n52 5.73743015814e-10 
R51_54 n51 n51_n54 0.000242115578198 
L51_54 n51_n54 n54 1.43056918539e-09 
R52_55 n52 n52_n55 0.000383383102562 
L52_55 n52_n55 n55 1.79158875212e-09 
R53_54 n53 n53_n54 9.75908577368e-05 
L53_54 n53_n54 n54 5.32447556608e-10 
R54_55 n54 n54_n55 9.75908577368e-05 
L54_55 n54_n55 n55 5.32447556608e-10 
R56_57 n56 n56_n57 0.000107621669537 
L56_57 n56_n57 n57 5.6149687283e-10 
R56_59 n56 n56_n59 0.000424391208389 
L56_59 n56_n59 n59 1.96404816226e-09 
R57_58 n57 n57_n58 0.000107621669537 
L57_58 n57_n58 n58 5.6149687283e-10 
R57_60 n57 n57_n60 0.000233170329565 
L57_60 n57_n60 n60 1.42976097227e-09 
R58_61 n58 n58_n61 0.000424391208389 
L58_61 n58_n61 n61 1.96404816226e-09 
R59_60 n59 n59_n60 8.99583675607e-05 
L59_60 n59_n60 n60 5.2206252165e-10 
R59_62 n59 n59_n62 0.000424391208389 
L59_62 n59_n62 n62 1.96404816226e-09 
R60_61 n60 n60_n61 8.99583675607e-05 
L60_61 n60_n61 n61 5.2206252165e-10 
R60_63 n60 n60_n63 0.000233170329565 
L60_63 n60_n63 n63 1.42976097227e-09 
R61_64 n61 n61_n64 0.000424391208389 
L61_64 n61_n64 n64 1.96404816226e-09 
R62_74 n62 n62_n74 0.000160665131753 
L62_74 n62_n74 n74 5.90089148131e-10 
R62_63 n62 n62_n63 7.66879445519e-05 
L62_63 n62_n63 n63 4.63862562895e-10 
R63_64 n63 n63_n64 7.66879445519e-05 
L63_64 n63_n64 n64 4.63862562895e-10 
R63_75 n63 n63_n75 8.39503417975e-05 
L63_75 n63_n75 n75 4.06548813766e-10 
R64_76 n64 n64_n76 9.32261699443e-05 
L64_76 n64_n76 n76 4.31726133114e-10 
R64_92 n64 n64_n92 0.000188613690931 
L64_92 n64_n92 n92 6.45010960615e-10 
R65_68 n65 n65_n68 0.000160665131753 
L65_68 n65_n68 n68 5.90089148131e-10 
R65_66 n65 n65_n66 1.10878770205e-05 
L65_66 n65_n66 n66 2.89399422201e-11 
R65_83 n65 n65_n83 0.000412166060799 
L65_83 n65_n83 n83 1.69207810606e-09 
R65_92 n65 n65_n92 0.000188613690931 
L65_92 n65_n92 n92 6.45010960615e-10 
R66_67 n66 n66_n67 1.10878770205e-05 
L66_67 n66_n67 n67 2.89399422201e-11 
R66_84 n66 n66_n84 0.000444636521557 
L66_84 n66_n84 n84 1.82960747199e-09 
R66_69 n66 n66_n69 0.000210068712822 
L66_69 n66_n69 n69 7.18374989165e-10 
R67_90 n67 n67_n90 5.96191526608e-05 
L67_90 n67_n90 n90 3.32886917409e-10 
R67_70 n67 n67_n70 0.000160665131753 
L67_70 n67_n70 n70 5.90089148131e-10 
R67_85 n67 n67_n85 0.000424391208389 
L67_85 n67_n85 n85 1.96404816226e-09 
R68_71 n68 n68_n71 0.000160665131753 
L68_71 n68_n71 n71 5.90089148131e-10 
R68_93 n68 n68_n93 0.000104045159839 
L68_93 n68_n93 n93 4.6107729446e-10 
R68_69 n68 n68_n69 2.10424983181e-05 
L68_69 n68_n69 n69 4.82736723618e-11 
R69_72 n69 n69_n72 0.000210068712822 
L69_72 n69_n72 n72 7.18374989165e-10 
R69_70 n69 n69_n70 2.10424983181e-05 
L69_70 n69_n70 n70 4.82736723618e-11 
R70_73 n70 n70_n73 0.000160665131753 
L70_73 n70_n73 n73 5.90089148131e-10 
R70_95 n70 n70_n95 0.000104045159839 
L70_95 n70_n95 n95 4.6107729446e-10 
R71_72 n71 n71_n72 4.42083335776e-05 
L71_72 n71_n72 n72 9.08399489092e-11 
R71_94 n71 n71_n94 0.000188613690931 
L71_94 n71_n94 n94 6.45010960615e-10 
R72_73 n72 n72_n73 4.42083335776e-05 
L72_73 n72_n73 n73 9.08399489092e-11 
R73_97 n73 n73_n97 0.000188613690931 
L73_97 n73_n97 n97 6.45010960615e-10 
R74_75 n74 n74_n75 0.000133135300895 
L74_75 n74_n75 n75 6.33837957151e-10 
R74_77 n74 n74_n77 0.000160665131753 
L74_77 n74_n77 n77 5.90089148131e-10 
R75_76 n75 n75_n76 0.000133135300895 
L75_76 n75_n76 n76 6.33837957151e-10 
R75_78 n75 n75_n78 8.39503417975e-05 
L75_78 n75_n78 n78 4.06548813766e-10 
R76_93 n76 n76_n93 0.000104045159839 
L76_93 n76_n93 n93 4.6107729446e-10 
R76_79 n76 n76_n79 9.32261699443e-05 
L76_79 n76_n79 n79 4.31726133114e-10 
R77_78 n77 n77_n78 0.000238858147796 
L77_78 n77_n78 n78 8.72156369211e-10 
R78_79 n78 n78_n79 0.000238858147796 
L78_79 n78_n79 n79 8.72156369211e-10 
R79_94 n79 n79_n94 0.000188613690931 
L79_94 n79_n94 n94 6.45010960615e-10 
R80_81 n80 n80_n81 1.67840279072e-05 
L80_81 n80_n81 n81 4.12951702915e-11 
R80_83 n80 n80_n83 0.000412166060799 
L80_83 n80_n83 n83 1.69207810606e-09 
R81_82 n81 n81_n82 1.67840279072e-05 
L81_82 n81_n82 n82 4.12951702915e-11 
R81_84 n81 n81_n84 0.000444636521557 
L81_84 n81_n84 n84 1.82960747199e-09 
R82_85 n82 n82_n85 0.000424391208389 
L82_85 n82_n85 n85 1.96404816226e-09 
R82_86 n82 n82_n86 8.39503417975e-05 
L82_86 n82_n86 n86 4.06548813766e-10 
R83_84 n83 n83_n84 6.46288812117e-05 
L83_84 n83_n84 n84 3.11630602595e-10 
R84_85 n84 n84_n85 6.46288812117e-05 
L84_85 n84_n85 n85 3.11630602595e-10 
R85_88 n85 n85_n88 8.07654730206e-05 
L85_88 n85_n88 n88 4.450736511e-10 
R86_88 n86 n86_n88 0.00028692996179 
L86_88 n86_n88 n88 1.59653746799e-09 
R86_87 n86 n86_n87 8.39503417975e-05 
L86_87 n86_n87 n87 4.06548813766e-10 
R87_89 n87 n87_n89 0.000510141130765 
L87_89 n87_n89 n89 2.14084774089e-09 
R88_89 n88 n88_n89 8.07654730206e-05 
L88_89 n88_n89 n89 4.450736511e-10 
R88_90 n88 n88_n90 0.00028692996179 
L88_90 n88_n90 n90 1.59653746799e-09 
R89_91 n89 n89_n91 0.000510141130765 
L89_91 n89_n91 n91 2.14084774089e-09 
R90_91 n90 n90_n91 5.96191526608e-05 
L90_91 n90_n91 n91 3.32886917409e-10 
R90_95 n90 n90_n95 0.000104045159839 
L90_95 n90_n95 n95 4.6107729446e-10 
R91_96 n91 n91_n96 0.000188613690931 
L91_96 n91_n96 n96 6.45010960615e-10 
R92_93 n92 n92_n93 0.000104045159839 
L92_93 n92_n93 n93 4.6107729446e-10 
R93_94 n93 n93_n94 0.000104045159839 
L93_94 n93_n94 n94 4.6107729446e-10 
R95_96 n95 n95_n96 0.000104045159839 
L95_96 n95_n96 n96 4.6107729446e-10 
R95_97 n95 n95_n97 0.000104045159839 
L95_97 n95_n97 n97 4.6107729446e-10 
R96_98 n96 n96_n98 0.000188613690931 
L96_98 n96_n98 n98 6.45010960615e-10 
R97_98 n97 n97_n98 0.000188613690931 
L97_98 n97_n98 n98 6.45010960615e-10 
K_L74_77_L66_84 L74_77 L66_84 0.09203632930569622 
K_L74_77_L19_22 L74_77 L19_22 0.09582846078965618 
K_L74_77_L34_46 L74_77 L34_46 0.030035207706853587 
K_L74_77_L32_35 L74_77 L32_35 0.057081703433777255 
K_L74_77_L89_91 L74_77 L89_91 0.06337609348903049 
K_L74_77_L28_31 L74_77 L28_31 0.055455079552840264 
K_L74_77_L26_29 L74_77 L26_29 0.04438164374529302 
K_L74_77_L33_36 L74_77 L33_36 0.05905380204901368 
K_L74_77_L37_40 L74_77 L37_40 0.05442107877277237 
K_L74_77_L23_26 L74_77 L23_26 0.03880054341107144 
K_L74_77_L86_88 L74_77 L86_88 0.06670570211026744 
K_L74_77_L93_94 L74_77 L93_94 0.12065080752005673 
K_L74_77_L65_68 L74_77 L65_68 0.08214221672390913 
K_L74_77_L96_98 L74_77 L96_98 0.05031145252343922 
K_L74_77_L14_17 L74_77 L14_17 0.07333237494762365 
K_L74_77_L27_30 L74_77 L27_30 0.05381196909749276 
K_L74_77_L76_79 L74_77 L76_79 0.18868923025910664 
K_L74_77_L88_90 L74_77 L88_90 0.08142545972072979 
K_L74_77_L91_96 L74_77 L91_96 0.049720714569050445 
K_L74_77_L15_18 L74_77 L15_18 0.06986634247973322 
K_L74_77_L36_39 L74_77 L36_39 0.06705101957689118 
K_L74_77_L43_46 L74_77 L43_46 0.028116978408454535 
K_L74_77_L67_85 L74_77 L67_85 0.08283989387782396 
K_L74_77_L81_84 L74_77 L81_84 0.07032462779751851 
K_L74_77_L32_44 L74_77 L32_44 0.04391326105150857 
K_L74_77_L57_60 L74_77 L57_60 0.1039098575338928 
K_L74_77_L50_53 L74_77 L50_53 0.12988171477139676 
K_L74_77_L80_83 L74_77 L80_83 0.07446167289922583 
K_L74_77_L34_37 L74_77 L34_37 0.048901491165580915 
K_L74_77_L41_44 L74_77 L41_44 0.03997152452771688 
K_L74_77_L87_89 L74_77 L87_89 0.05360201188050499 
K_L74_77_L52_55 L74_77 L52_55 0.18412826089886028 
K_L74_77_L90_95 L74_77 L90_95 0.06645375688854588 
K_L74_77_L47_48 L74_77 L47_48 0.040523193874951846 
K_L74_77_L18_21 L74_77 L18_21 0.09570869589536582 
K_L74_77_L25_28 L74_77 L25_28 0.04810340292181603 
K_L74_77_L42_45 L74_77 L42_45 0.03548270056408857 
K_L74_77_L64_76 L74_77 L64_76 0.17071251071018342 
K_L74_77_L92_93 L74_77 L92_93 0.11516360865783994 
K_L74_77_L65_83 L74_77 L65_83 0.09873515058007959 
K_L74_77_L35_38 L74_77 L35_38 0.0664101780539218 
K_L74_77_L69_72 L74_77 L69_72 0.06369294074530485 
K_L74_77_L66_69 L74_77 L66_69 0.06739927273650653 
K_L74_77_L48_49 L74_77 L48_49 0.04623492922688055 
K_L74_77_L60_63 L74_77 L60_63 0.19848019609709633 
K_L74_77_L16_19 L74_77 L16_19 0.07095949859916718 
K_L74_77_L63_75 L74_77 L63_75 0.31694729601249516 
K_L74_77_L58_61 L74_77 L58_61 0.08461217125199878 
K_L74_77_L70_73 L74_77 L70_73 0.06945752959137881 
K_L74_77_L51_54 L74_77 L51_54 0.1544925723642255 
K_L74_77_L67_70 L74_77 L67_70 0.06805970788513734 
K_L74_77_L95_97 L74_77 L95_97 0.067470353518691 
K_L74_77_L75_78 L74_77 L75_78 0.48642821812836484 
K_L74_77_L17_20 L74_77 L17_20 0.10195322691392326 
K_L74_77_L33_45 L74_77 L33_45 0.038209585335649436 
K_L74_77_L31_52 L74_77 L31_52 0.0951203983397111 
K_L74_77_L68_71 L74_77 L68_71 0.08462029883014828 
K_L74_77_L24_27 L74_77 L24_27 0.04689618847014412 
K_L74_77_L29_50 L74_77 L29_50 0.08486016398313892 
K_L74_77_L61_64 L74_77 L61_64 0.14344383605492156 
K_L74_77_L82_85 L74_77 L82_85 0.06505890144041859 
K_L74_77_L30_51 L74_77 L30_51 0.09720784089556218 
K_L95_96_L86_87 L95_96 L86_87 0.08631501766272846 
K_L95_96_L71_94 L95_96 L71_94 0.13285613570102042 
K_L95_96_L67_90 L95_96 L67_90 0.32281078040692224 
K_L95_96_L54_55 L95_96 L54_55 0.06469687252196213 
K_L95_96_L32_33 L95_96 L32_33 0.07679750624762972 
K_L95_96_L81_82 L95_96 L81_82 0.06483460459469138 
K_L95_96_L15_16 L95_96 L15_16 0.05792632417157055 
K_L95_96_L82_86 L95_96 L82_86 0.08483979702892833 
K_L95_96_L21_22 L95_96 L21_22 0.10493142388815645 
K_L95_96_L84_85 L95_96 L84_85 0.03518289854881532 
K_L95_96_L23_24 L95_96 L23_24 0.033069603952220805 
K_L95_96_L77_78 L95_96 L77_78 0.06590456318998196 
K_L95_96_L80_81 L95_96 L80_81 0.06393555508664152 
K_L95_96_L65_66 L95_96 L65_66 0.18773079846384455 
K_L95_96_L14_15 L95_96 L14_15 0.05685057777003896 
K_L95_96_L26_27 L95_96 L26_27 0.04172425537096543 
K_L95_96_L97_98 L95_96 L97_98 0.5180611368989356 
K_L95_96_L79_94 L95_96 L79_94 0.09941537339243756 
K_L95_96_L83_84 L95_96 L83_84 0.03405096494281768 
K_L95_96_L57_58 L95_96 L57_58 0.06942598128872318 
K_L95_96_L20_21 L95_96 L20_21 0.09889830790327912 
K_L95_96_L72_73 L95_96 L72_73 0.12053077920259657 
K_L95_96_L25_47 L95_96 L25_47 0.11595483421984507 
K_L95_96_L50_51 L95_96 L50_51 0.05042279337816381 
K_L95_96_L32_49 L95_96 L32_49 0.16708918661784872 
K_L95_96_L85_88 L95_96 L85_88 0.1258657167052929 
K_L95_96_L36_37 L95_96 L36_37 0.07923024302038496 
K_L95_96_L31_49 L95_96 L31_49 0.1378449179967337 
K_L95_96_L33_34 L95_96 L33_34 0.07297406205006748 
K_L95_96_L41_42 L95_96 L41_42 0.048472952293160926 
K_L95_96_L60_61 L95_96 L60_61 0.0881655710611989 
K_L95_96_L17_18 L95_96 L17_18 0.038101122432750316 
K_L95_96_L41_47 L95_96 L41_47 0.13209614888700066 
K_L95_96_L62_63 L95_96 L62_63 0.08970734156287997 
K_L95_96_L90_91 L95_96 L90_91 0.442474918201236 
K_L95_96_L65_92 L95_96 L65_92 0.1427686265932256 
K_L95_96_L66_67 L95_96 L66_67 0.206535044881923 
K_L95_96_L35_36 L95_96 L35_36 0.08618698321635541 
K_L95_96_L42_43 L95_96 L42_43 0.04668305174694858 
K_L95_96_L28_48 L95_96 L28_48 0.12806990654531109 
K_L95_96_L53_54 L95_96 L53_54 0.05590509521082638 
K_L95_96_L88_89 L95_96 L88_89 0.13192048226986935 
K_L95_96_L45_46 L95_96 L45_46 0.057872408569330694 
K_L95_96_L59_60 L95_96 L59_60 0.07460141343457546 
K_L95_96_L63_64 L95_96 L63_64 0.1123022401549765 
K_L95_96_L30_31 L95_96 L30_31 0.05713968994641784 
K_L95_96_L51_52 L95_96 L51_52 0.05719305963423318 
K_L95_96_L71_72 L95_96 L71_72 0.10938400160227911 
K_L95_96_L39_40 L95_96 L39_40 0.14386530308469342 
K_L95_96_L27_28 L95_96 L27_28 0.04522428544053508 
K_L95_96_L78_79 L95_96 L78_79 0.0828169621168237 
K_L95_96_L44_45 L95_96 L44_45 0.06027273907556428 
K_L95_96_L64_92 L95_96 L64_92 0.1033356555302575 
K_L95_96_L38_39 L95_96 L38_39 0.19580526953070776 
K_L95_96_L73_97 L95_96 L73_97 0.2349941519035091 
K_L95_96_L56_57 L95_96 L56_57 0.06179652573609667 
K_L95_96_L29_30 L95_96 L29_30 0.05180344090788309 
K_L95_96_L24_25 L95_96 L24_25 0.03553045318913755 
K_L95_96_L18_19 L95_96 L18_19 0.03940824569474403 
K_L95_96_L44_48 L95_96 L44_48 0.14997835590871078 
K_L23_26_L66_84 L23_26 L66_84 0.05192413685013971 
K_L23_26_L19_22 L23_26 L19_22 0.053502633445016615 
K_L23_26_L34_46 L23_26 L34_46 0.031223424076349 
K_L23_26_L32_35 L23_26 L32_35 0.052003157547806336 
K_L23_26_L89_91 L23_26 L89_91 0.041932908029755626 
K_L23_26_L28_31 L23_26 L28_31 0.3342746499672429 
K_L23_26_L60_63 L23_26 L60_63 0.08439458182615663 
K_L23_26_L33_36 L23_26 L33_36 0.056696612525644834 
K_L23_26_L37_40 L23_26 L37_40 0.041612660499262266 
K_L23_26_L65_68 L23_26 L65_68 0.03446251579373632 
K_L23_26_L86_88 L23_26 L86_88 0.06075126640410227 
K_L23_26_L93_94 L23_26 L93_94 0.03872976310879435 
K_L23_26_L96_98 L23_26 L96_98 0.026610188795477784 
K_L23_26_L14_17 L23_26 L14_17 0.06428983500980989 
K_L23_26_L27_30 L23_26 L27_30 0.41359280753867733 
K_L23_26_L76_79 L23_26 L76_79 0.042437918624147954 
K_L23_26_L88_90 L23_26 L88_90 0.053445510278871546 
K_L23_26_L91_96 L23_26 L91_96 0.02802330799130218 
K_L23_26_L15_18 L23_26 L15_18 0.061806939205046305 
K_L23_26_L36_39 L23_26 L36_39 0.0518221200364105 
K_L23_26_L43_46 L23_26 L43_46 0.03138160855321062 
K_L23_26_L67_85 L23_26 L67_85 0.049872216083990166 
K_L23_26_L81_84 L23_26 L81_84 0.059712710446259636 
K_L23_26_L32_44 L23_26 L32_44 0.06236248296027469 
K_L23_26_L57_60 L23_26 L57_60 0.1198389095956531 
K_L23_26_L69_72 L23_26 L69_72 0.027828615840456337 
K_L23_26_L34_37 L23_26 L34_37 0.0446892282459006 
K_L23_26_L56_59 L23_26 L56_59 0.10688046994549517 
K_L23_26_L41_44 L23_26 L41_44 0.049776581875763615 
K_L23_26_L87_89 L23_26 L87_89 0.0464974365405551 
K_L23_26_L52_55 L23_26 L52_55 0.09260274990931841 
K_L23_26_L90_95 L23_26 L90_95 0.03586939998641173 
K_L23_26_L47_48 L23_26 L47_48 0.06859196385760141 
K_L23_26_L18_21 L23_26 L18_21 0.05322585463963174 
K_L23_26_L25_28 L23_26 L25_28 0.17381332110480274 
K_L23_26_L42_45 L23_26 L42_45 0.04066204170185004 
K_L23_26_L64_76 L23_26 L64_76 0.046512963663632716 
K_L23_26_L92_93 L23_26 L92_93 0.04198316146159511 
K_L23_26_L65_83 L23_26 L65_83 0.05426277496104341 
K_L23_26_L35_38 L23_26 L35_38 0.0473329267146831 
K_L23_26_L80_83 L23_26 L80_83 0.06250108037229064 
K_L23_26_L62_74 L23_26 L62_74 0.043149472814730694 
K_L23_26_L66_69 L23_26 L66_69 0.02966080337401395 
K_L23_26_L48_49 L23_26 L48_49 0.14939556187211164 
K_L23_26_L59_62 L23_26 L59_62 0.07361282910012483 
K_L23_26_L82_85 L23_26 L82_85 0.05727075726542733 
K_L23_26_L16_19 L23_26 L16_19 0.061572531245115907 
K_L23_26_L63_75 L23_26 L63_75 0.0512521276213098 
K_L23_26_L58_61 L23_26 L58_61 0.08194579209582438 
K_L23_26_L70_73 L23_26 L70_73 0.03059839922249525 
K_L23_26_L51_54 L23_26 L51_54 0.10873838898578826 
K_L23_26_L67_70 L23_26 L67_70 0.03259823390463943 
K_L23_26_L95_97 L23_26 L95_97 0.03377642879071672 
K_L23_26_L75_78 L23_26 L75_78 0.046208817341610135 
K_L23_26_L17_20 L23_26 L17_20 0.055261455803181446 
K_L23_26_L33_45 L23_26 L33_45 0.042729425995686535 
K_L23_26_L31_52 L23_26 L31_52 0.1577568757539601 
K_L23_26_L68_71 L23_26 L68_71 0.03212429306649136 
K_L23_26_L24_27 L23_26 L24_27 0.5256880543854915 
K_L23_26_L61_64 L23_26 L61_64 0.06380033123614891 
K_L23_26_L30_51 L23_26 L30_51 0.21037372771979748 
K_L23_24_L71_94 L23_24 L71_94 0.03047756782109177 
K_L23_24_L67_90 L23_24 L67_90 0.045000532230698186 
K_L23_24_L54_55 L23_24 L54_55 0.06723074593639176 
K_L23_24_L32_33 L23_24 L32_33 0.04891192765301907 
K_L23_24_L15_16 L23_24 L15_16 0.0469064531986039 
K_L23_24_L82_86 L23_24 L82_86 0.05125227201543069 
K_L23_24_L21_22 L23_24 L21_22 0.03626040586380387 
K_L23_24_L84_85 L23_24 L84_85 0.01401434317827758 
K_L23_24_L86_87 L23_24 L86_87 0.046208923116486576 
K_L23_24_L68_69 L23_24 L68_69 0.028440113297989678 
K_L23_24_L77_78 L23_24 L77_78 0.037654025807993804 
K_L23_24_L65_66 L23_24 L65_66 0.04050735753851494 
K_L23_24_L14_15 L23_24 L14_15 0.04842889593957293 
K_L23_24_L26_27 L23_24 L26_27 0.5256880543854915 
K_L23_24_L97_98 L23_24 L97_98 0.02679818031059779 
K_L23_24_L79_94 L23_24 L79_94 0.031955604312728834 
K_L23_24_L83_84 L23_24 L83_84 0.014341906819034782 
K_L23_24_L57_58 L23_24 L57_58 0.08666258355457832 
K_L23_24_L74_75 L23_24 L74_75 0.0476193980579788 
K_L23_24_L20_21 L23_24 L20_21 0.03695008619110494 
K_L23_24_L72_73 L23_24 L72_73 0.01943096923618924 
K_L23_24_L75_76 L23_24 L75_76 0.04526237394924959 
K_L23_24_L50_51 L23_24 L50_51 0.09525621690721926 
K_L23_24_L32_49 L23_24 L32_49 0.1388906811316258 
K_L23_24_L85_88 L23_24 L85_88 0.04435021319830577 
K_L23_24_L70_95 L23_24 L70_95 0.03502625305097659 
K_L23_24_L36_37 L23_24 L36_37 0.03609377932022923 
K_L23_24_L31_49 L23_24 L31_49 0.270726567545165 
K_L23_24_L33_34 L23_24 L33_34 0.04395133360373014 
K_L23_24_L80_81 L23_24 L80_81 0.044323533313827594 
K_L23_24_L60_61 L23_24 L60_61 0.07230685846494184 
K_L23_24_L17_18 L23_24 L17_18 0.021743869747195502 
K_L23_24_L63_64 L23_24 L63_64 0.06060858214078643 
K_L23_24_L62_63 L23_24 L62_63 0.06487963287602308 
K_L23_24_L90_91 L23_24 L90_91 0.042046306895927504 
K_L23_24_L65_92 L23_24 L65_92 0.034102634723034715 
K_L23_24_L66_67 L23_24 L66_67 0.03981808881139613 
K_L23_24_L35_36 L23_24 L35_36 0.03965369376054434 
K_L23_24_L76_93 L23_24 L76_93 0.04019961511832531 
K_L23_24_L28_48 L23_24 L28_48 0.30650332736531816 
K_L23_24_L53_54 L23_24 L53_54 0.0682921477530086 
K_L23_24_L88_89 L23_24 L88_89 0.040667624929225855 
K_L23_24_L69_70 L23_24 L69_70 0.028041398467339853 
K_L23_24_L81_82 L23_24 L81_82 0.04306016914899591 
K_L23_24_L59_60 L23_24 L59_60 0.08118479514409348 
K_L23_24_L68_93 L23_24 L68_93 0.038113069581327 
K_L23_24_L30_31 L23_24 L30_31 0.19035955166996973 
K_L23_24_L51_52 L23_24 L51_52 0.0920890413349985 
K_L23_24_L71_72 L23_24 L71_72 0.019679895103323197 
K_L23_24_L39_40 L23_24 L39_40 0.03493590658111309 
K_L23_24_L27_28 L23_24 L27_28 0.31876158926901976 
K_L23_24_L78_79 L23_24 L78_79 0.03603567730060035 
K_L23_24_L44_45 L23_24 L44_45 0.0441768065232169 
K_L23_24_L64_92 L23_24 L64_92 0.03621179083716016 
K_L23_24_L38_39 L23_24 L38_39 0.03786766232636561 
K_L23_24_L73_97 L23_24 L73_97 0.02824314595498843 
K_L23_24_L56_57 L23_24 L56_57 0.10456749656264805 
K_L23_24_L29_30 L23_24 L29_30 0.213781172302526 
K_L23_24_L45_46 L23_24 L45_46 0.03949599947327524 
K_L23_24_L18_19 L23_24 L18_19 0.021207693863065778 
K_L23_24_L44_48 L23_24 L44_48 0.14408886155006878 
K_L77_78_L86_87 L77_78 L86_87 0.04646433855833857 
K_L77_78_L67_90 L77_78 L67_90 0.07847710273100476 
K_L77_78_L54_55 L77_78 L54_55 0.15443464081991856 
K_L77_78_L32_33 L77_78 L32_33 0.045178047044424734 
K_L77_78_L81_82 L77_78 L81_82 0.04078569985489148 
K_L77_78_L15_16 L77_78 L15_16 0.042024917152549475 
K_L77_78_L82_86 L77_78 L82_86 0.04985852884012078 
K_L77_78_L21_22 L77_78 L21_22 0.06718104021472837 
K_L77_78_L84_85 L77_78 L84_85 0.015937135501681778 
K_L77_78_L68_69 L77_78 L68_69 0.07299753224498202 
K_L77_78_L80_81 L77_78 L80_81 0.04144714148915016 
K_L77_78_L65_66 L77_78 L65_66 0.07539108176475978 
K_L77_78_L14_15 L77_78 L14_15 0.04261435437986708 
K_L77_78_L26_27 L77_78 L26_27 0.04955477859778634 
K_L77_78_L83_84 L77_78 L83_84 0.016240555575411108 
K_L77_78_L57_58 L77_78 L57_58 0.06392747707575876 
K_L77_78_L74_75 L77_78 L74_75 0.5586123314136158 
K_L77_78_L20_21 L77_78 L20_21 0.06967081132739253 
K_L77_78_L75_76 L77_78 L75_76 0.24523577223414136 
K_L77_78_L25_47 L77_78 L25_47 0.11077862141467743 
K_L77_78_L50_51 L77_78 L50_51 0.08264373679748292 
K_L77_78_L32_49 L77_78 L32_49 0.11605938910159504 
K_L77_78_L85_88 L77_78 L85_88 0.05081590614810175 
K_L77_78_L70_95 L77_78 L70_95 0.07879248688885179 
K_L77_78_L36_37 L77_78 L36_37 0.04001810341501295 
K_L77_78_L31_49 L77_78 L31_49 0.13740680962422383 
K_L77_78_L33_34 L77_78 L33_34 0.04192330485594098 
K_L77_78_L41_42 L77_78 L41_42 0.03070648834411583 
K_L77_78_L60_61 L77_78 L60_61 0.07336166451936801 
K_L77_78_L17_18 L77_78 L17_18 0.023504562482369908 
K_L77_78_L41_47 L77_78 L41_47 0.09831819002886423 
K_L77_78_L62_63 L77_78 L62_63 0.23863518580235496 
K_L77_78_L76_93 L77_78 L76_93 0.14955342019345438 
K_L77_78_L90_91 L77_78 L90_91 0.06861507044441092 
K_L77_78_L65_92 L77_78 L65_92 0.09124139483077902 
K_L77_78_L66_67 L77_78 L66_67 0.07267166706230083 
K_L77_78_L35_36 L77_78 L35_36 0.04385876659570355 
K_L77_78_L42_43 L77_78 L42_43 0.028793446620870872 
K_L77_78_L28_48 L77_78 L28_48 0.12464957680651184 
K_L77_78_L53_54 L77_78 L53_54 0.11962755868424287 
K_L77_78_L88_89 L77_78 L88_89 0.04690093504864922 
K_L77_78_L69_70 L77_78 L69_70 0.0690236575923897 
K_L77_78_L45_46 L77_78 L45_46 0.03508578779323377 
K_L77_78_L59_60 L77_78 L59_60 0.11148983161747623 
K_L77_78_L63_64 L77_78 L63_64 0.13803442774758196 
K_L77_78_L68_93 L77_78 L68_93 0.11074451473572688 
K_L77_78_L30_31 L77_78 L30_31 0.07180880351118857 
K_L77_78_L51_52 L77_78 L51_52 0.0932740488105867 
K_L77_78_L39_40 L77_78 L39_40 0.04909239000068654 
K_L77_78_L27_28 L77_78 L27_28 0.05146509241454971 
K_L77_78_L44_45 L77_78 L44_45 0.03751443570229211 
K_L77_78_L64_92 L77_78 L64_92 0.1204484821003739 
K_L77_78_L38_39 L77_78 L38_39 0.056047233530420945 
K_L77_78_L56_57 L77_78 L56_57 0.07293198816097911 
K_L77_78_L29_30 L77_78 L29_30 0.06786783446449876 
K_L77_78_L24_25 L77_78 L24_25 0.038839580090717224 
K_L77_78_L18_19 L77_78 L18_19 0.023121583554938947 
K_L77_78_L44_48 L77_78 L44_48 0.10248987279840613 
K_L65_66_L86_87 L65_66 L86_87 0.11789205802507231 
K_L65_66_L71_94 L65_66 L71_94 0.1086730260284059 
K_L65_66_L76_93 L65_66 L76_93 0.16537840239168297 
K_L65_66_L32_33 L65_66 L32_33 0.09198500548396572 
K_L65_66_L81_82 L65_66 L81_82 0.10642806929954939 
K_L65_66_L15_16 L65_66 L15_16 0.08595631285124829 
K_L65_66_L82_86 L65_66 L82_86 0.13099662862758507 
K_L65_66_L21_22 L65_66 L21_22 0.3393849324381748 
K_L65_66_L80_81 L65_66 L80_81 0.10674910563837153 
K_L65_66_L84_85 L65_66 L84_85 0.05100121894286635 
K_L65_66_L14_15 L65_66 L14_15 0.08476062241543392 
K_L65_66_L26_27 L65_66 L26_27 0.0518398891535962 
K_L65_66_L79_94 L65_66 L79_94 0.09895218688436364 
K_L65_66_L57_58 L65_66 L57_58 0.10184564678264771 
K_L65_66_L74_75 L65_66 L74_75 0.10202861734370795 